REMARK  6 active torsions:
REMARK  status: ('A' for Active; 'I' for Inactive)
REMARK    1  A    between atoms: C_3  and  C_4 
REMARK       I    between atoms: C_4  and  N_6 
REMARK    2  A    between atoms: N_6  and  N_7 
REMARK    3  A    between atoms: C_8  and  C_9 
REMARK    4  A    between atoms: C_12  and  O_13 
REMARK    5  A    between atoms: C_16  and  C_17 
REMARK    6  A    between atoms: C_21  and  N_22 
ROOT
ATOM      1  C   UNL d   1       2.486  -1.761   0.139  0.00  0.00     0.069 C 
ATOM      2  C   UNL d   1       1.662  -0.509   0.013  0.00  0.00     0.021 C 
ATOM      3  C   UNL d   1       2.055   0.792   0.088  0.00  0.00     0.060 C 
ATOM      4  C   UNL d   1       0.995   1.857  -0.100  0.00  0.00     0.158 C 
ATOM      5  N   UNL d   1      -0.324   1.366   0.271  0.00  0.00    -0.354 N 
ATOM      6  C   UNL d   1      -0.700   0.087   0.014  0.00  0.00     0.172 C 
ATOM      7  S   UNL d   1      -2.292  -0.380   0.001  0.00  0.00    -0.041 SA
ATOM      8  N   UNL d   1       0.315  -0.798  -0.186  0.00  0.00    -0.337 N 
ATOM      9  H   UNL d   1      -1.074   2.023   0.444  0.00  0.00     0.163 HD
ATOM     10  H   UNL d   1       0.035  -1.761  -0.352  0.00  0.00     0.168 HD
ENDROOT
BRANCH   3  11
ATOM     11  C   UNL d   1       3.516   1.188   0.270  0.00  0.00     0.272 C 
ATOM     12  O   UNL d   1       4.385   0.316   0.380  0.00  0.00    -0.266 OA
ATOM     13  N   UNL d   1       3.875   2.536   0.306  0.00  0.00    -0.243 N 
ATOM     14  H   UNL d   1       3.222   3.301   0.229  0.00  0.00     0.192 HD
BRANCH  13  15
ATOM     15  N   UNL d   1       5.224   2.838   0.451  0.00  0.00    -0.183 NA
ATOM     16  C   UNL d   1       5.582   4.077   0.581  0.00  0.00     0.150 C 
BRANCH  16  17
ATOM     17  C   UNL d   1       7.011   4.456   0.784  0.00  0.00    -0.017 A 
ATOM     18  C   UNL d   1       8.038   3.801   0.091  0.00  0.00     0.015 A 
ATOM     19  C   UNL d   1       9.379   4.173   0.288  0.00  0.00     0.037 A 
ATOM     20  C   UNL d   1       9.687   5.186   1.191  0.00  0.00     0.065 A 
ATOM     21  C   UNL d   1       8.676   5.833   1.895  0.00  0.00     0.037 A 
ATOM     22  C   UNL d   1       7.335   5.480   1.684  0.00  0.00     0.015 A 
BRANCH  20  23
ATOM     23  O   UNL d   1      10.969   5.588   1.427  0.00  0.00    -0.361 OA
ATOM     24  H   UNL d   1      11.580   5.080   0.868  0.00  0.00     0.217 HD
ENDBRANCH  20  23
ENDBRANCH  16  17
ENDBRANCH  13  15
ENDBRANCH   3  11
BRANCH   4  25
ATOM     25  C   UNL d   1       0.981   2.384  -1.531  0.00  0.00    -0.028 A 
ATOM     26  C   UNL d   1       0.778   1.530  -2.635  0.00  0.00     0.010 A 
ATOM     27  C   UNL d   1       0.969   1.975  -3.942  0.00  0.00     0.003 A 
ATOM     28  C   UNL d   1       1.280   3.309  -4.181  0.00  0.00     0.036 A 
ATOM     29  C   UNL d   1       1.429   4.181  -3.095  0.00  0.00     0.103 A 
ATOM     30  C   UNL d   1       1.272   3.730  -1.777  0.00  0.00     0.045 A 
BRANCH  29  31
ATOM     31  N   UNL d   1       1.830   5.572  -3.329  0.00  0.00    -0.116 N 
ATOM     32  O   UNL d   1       1.982   5.944  -4.497  0.00  0.00    -0.532 OA
ATOM     33  O   UNL d   1       2.012   6.286  -2.329  0.00  0.00    -0.532 OA
ENDBRANCH  29  31
ENDBRANCH   4  25
TORSDOF 6
