REMARK  7 active torsions:
REMARK  status: ('A' for Active; 'I' for Inactive)
REMARK    1  A    between atoms: C_2  and  C_3 
REMARK       I    between atoms: C_2  and  N_15 
REMARK    2  A    between atoms: C_3  and  N_4 
REMARK    3  A    between atoms: C_6  and  C_7 
REMARK    4  A    between atoms: N_15  and  C_16 
REMARK    5  A    between atoms: C_16  and  C_17 
REMARK    6  A    between atoms: C_17  and  C_18 
REMARK    7  A    between atoms: C_17  and  C_27 
ROOT
ATOM      1  C   UNL d   1       4.430   0.581   1.164  0.00  0.00     0.136 C 
ENDROOT
BRANCH   1   2
ATOM      2  N   UNL d   1       2.986   0.558   1.118  0.00  0.00    -0.359 N 
ATOM      3  C   UNL d   1       2.228   0.065   0.079  0.00  0.00     0.237 C 
ATOM      4  O   UNL d   1       1.010   0.021   0.246  0.00  0.00    -0.272 OA
ATOM      5  H   UNL d   1       2.429   0.824   1.919  0.00  0.00     0.162 HD
BRANCH   3   6
ATOM      6  C   UNL d   1       2.928  -0.450  -1.187  0.00  0.00     0.251 C 
BRANCH   6   7
ATOM      7  N   UNL d   1       1.956  -0.883  -2.190  0.00  0.00    -0.247 N 
ATOM      8  N   UNL d   1       1.774  -2.254  -2.498  0.00  0.00    -0.199 NA
ATOM      9  C   UNL d   1       1.629  -2.208  -3.965  0.00  0.00     0.265 C 
ATOM     10  H   UNL d   1       0.833  -2.462  -2.147  0.00  0.00     0.150 HD
ATOM     11  O   UNL d   1       1.210  -0.882  -4.300  0.00  0.00    -0.275 OA
ATOM     12  C   UNL d   1       1.536  -0.091  -3.234  0.00  0.00     0.379 C 
ATOM     13  O   UNL d   1       1.492   1.137  -3.251  0.00  0.00    -0.237 OA
BRANCH   9  14
ATOM     14  C   UNL d   1       2.982  -2.460  -4.600  0.00  0.00     0.027 A 
ATOM     15  C   UNL d   1       4.159  -1.772  -4.358  0.00  0.00     0.019 A 
ATOM     16  C   UNL d   1       5.278  -2.305  -5.039  0.00  0.00     0.008 A 
ATOM     17  C   UNL d   1       4.932  -3.384  -5.817  0.00  0.00     0.050 A 
ATOM     18  S   UNL d   1       3.260  -3.756  -5.691  0.00  0.00    -0.102 SA
ENDBRANCH   9  14
ENDBRANCH   6   7
ENDBRANCH   3   6
ENDBRANCH   1   2
BRANCH   1  19
ATOM     19  C   UNL d   1       5.074   0.932   2.528  0.00  0.00     0.069 C 
BRANCH  19  20
ATOM     20  C   UNL d   1       4.627   0.002   3.643  0.00  0.00    -0.040 A 
ATOM     21  C   UNL d   1       4.766  -1.328   3.663  0.00  0.00    -0.005 A 
ATOM     22  C   UNL d   1       5.252  -2.265   2.724  0.00  0.00     0.014 A 
ATOM     23  C   UNL d   1       4.332  -1.775   4.991  0.00  0.00     0.038 A 
ATOM     24  C   UNL d   1       5.456  -3.537   3.056  0.00  0.00     0.001 A 
ATOM     25  C   UNL d   1       5.061  -4.011   4.359  0.00  0.00     0.002 A 
ATOM     26  C   UNL d   1       4.498  -3.219   5.297  0.00  0.00     0.030 A 
ATOM     27  N   UNL d   1       3.887  -0.800   5.690  0.00  0.00    -0.385 N 
ATOM     28  C   UNL d   1       3.998   0.476   4.927  0.00  0.00     0.155 A 
ATOM     29  H   UNL d   1       3.523  -0.907   6.635  0.00  0.00     0.160 HD
ENDBRANCH  19  20
BRANCH  19  30
ATOM     30  C   UNL d   1       6.616   0.983   2.470  0.00  0.00    -0.026 C 
ATOM     31  C   UNL d   1       7.263   1.977   3.239  0.00  0.00     0.009 C 
ATOM     32  C   UNL d   1       8.648   2.158   3.147  0.00  0.00     0.001 C 
ATOM     33  C   UNL d   1       9.436   1.225   2.487  0.00  0.00     0.002 C 
ATOM     34  C   UNL d   1       8.843   0.133   1.893  0.00  0.00     0.024 C 
ATOM     35  C   UNL d   1       7.462   0.108   1.737  0.00  0.00     0.041 C 
ATOM     36 CL   UNL d   1       7.044  -0.890   0.381  0.00  0.00    -0.084 Cl
ENDBRANCH  19  30
ENDBRANCH   1  19
TORSDOF 7
