@<TRIPOS>MOLECULE
*****
 54 55 0 0 0
SMALL
GASTEIGER

@<TRIPOS>ATOM
      1 C           0.9049   -0.0274    0.0619 C.3     1  UNL1       -0.0652
      2 C           2.4191   -0.0192    0.0193 C.3     1  UNL1       -0.0528
      3 C           2.9229   -0.4239   -1.3701 C.3     1  UNL1       -0.0188
      4 C           4.4428   -0.4377   -1.3801 C.3     1  UNL1        0.0912
      5 O           4.9532   -0.9405   -2.6113 O.3     1  UNL1       -0.4761
      6 C           6.3243   -0.9804   -2.7181 C.ar    1  UNL1        0.2195
      7 N           6.7625   -0.4570   -3.8930 N.ar    1  UNL1       -0.2210
      8 C           8.0868   -0.5039   -4.1588 C.ar    1  UNL1        0.0314
      9 C           9.0151   -1.0510   -3.3014 C.ar    1  UNL1       -0.0430
     10 C           8.5555   -1.6002   -2.1135 C.ar    1  UNL1       -0.0506
     11 C           7.1892   -1.5974   -1.7926 C.ar    1  UNL1        0.0312
     12 C           6.6933   -2.2275   -0.5164 C.3     1  UNL1        0.0433
     13 N           7.6385   -2.9284    0.3281 N.am    1  UNL1       -0.2951
     14 C           7.2198   -3.4024    1.5436 C.2     1  UNL1        0.3000
     15 O           6.0477   -3.3864    1.9129 O.2     1  UNL1       -0.2529
     16 N           8.2367   -3.9273    2.2932 N.am    1  UNL1       -0.2968
     17 C           7.9727   -4.5292    3.5939 C.3     1  UNL1        0.0423
     18 C           9.2441   -5.0293    4.3020 C.3     1  UNL1        0.1046
     19 O          10.1365   -3.9175    4.4811 O.3     1  UNL1       -0.3869
     20 C           8.9053   -5.6968    5.6555 C.3     1  UNL1        0.1169
     21 O          10.1173   -6.1428    6.2863 O.3     1  UNL1       -0.4894
     22 C           9.9680   -6.7980    7.4809 C.ar    1  UNL1        0.1208
     23 C           8.9939   -7.7687    7.7271 C.ar    1  UNL1       -0.0172
     24 C           8.9682   -8.4428    8.9534 C.ar    1  UNL1       -0.0230
     25 C           9.9222   -8.1534    9.9217 C.ar    1  UNL1        0.1236
     26 F           9.8995   -8.8104   11.0890 F       1  UNL1       -0.2055
     27 C          10.9044   -7.2000    9.6877 C.ar    1  UNL1       -0.0230
     28 C          10.9296   -6.5259    8.4623 C.ar    1  UNL1       -0.0172
     29 H           0.5467    0.2814    1.0481 H       1  UNL1        0.0230
     30 H           0.5194   -1.0308   -0.1450 H       1  UNL1        0.0230
     31 H           0.4999    0.6607   -0.6855 H       1  UNL1        0.0230
     32 H           2.8025   -0.7097    0.7834 H       1  UNL1        0.0264
     33 H           2.7929    0.9780    0.2800 H       1  UNL1        0.0264
     34 H           2.5377    0.2439   -2.1456 H       1  UNL1        0.0298
     35 H           2.5604   -1.4322   -1.6103 H       1  UNL1        0.0298
     36 H           4.6565   -1.1312   -0.5795 H       1  UNL1        0.0697
     37 H           4.8582    0.5499   -1.1478 H       1  UNL1        0.0697
     38 H           8.3979   -0.0811   -5.1106 H       1  UNL1        0.0831
     39 H          10.0719   -1.0659   -3.5432 H       1  UNL1        0.0633
     40 H           9.2935   -2.0429   -1.4574 H       1  UNL1        0.0623
     41 H           5.8894   -2.9369   -0.7543 H       1  UNL1        0.0514
     42 H           6.3269   -1.4244    0.1286 H       1  UNL1        0.0514
     43 H           8.6238   -2.7884    0.2059 H       1  UNL1        0.1506
     44 H           9.1980   -3.7932    2.0114 H       1  UNL1        0.1503
     45 H           7.2686   -5.3525    3.4334 H       1  UNL1        0.0489
     46 H           7.4737   -3.7691    4.2074 H       1  UNL1        0.0489
     47 H           9.7741   -5.7478    3.6662 H       1  UNL1        0.0643
     48 H           9.7276   -3.3078    5.1196 H       1  UNL1        0.2100
     49 H           8.2290   -6.5364    5.4649 H       1  UNL1        0.0723
     50 H           8.4179   -4.9722    6.3190 H       1  UNL1        0.0723
     51 H           8.2679   -8.0489    6.9725 H       1  UNL1        0.0655
     52 H           8.2199   -9.2037    9.1525 H       1  UNL1        0.0647
     53 H          11.6460   -6.9956   10.4538 H       1  UNL1        0.0647
     54 H          11.7043   -5.7865    8.2743 H       1  UNL1        0.0655
@<TRIPOS>BOND
     1     1     2    1
     2     2     3    1
     3     3     4    1
     4     4     5    1
     5     5     6    1
     6     6     7   ar
     7     7     8   ar
     8     8     9   ar
     9     9    10   ar
    10    10    11   ar
    11     6    11   ar
    12    11    12    1
    13    12    13    1
    14    13    14   am
    15    14    15    2
    16    14    16   am
    17    16    17    1
    18    17    18    1
    19    18    19    1
    20    18    20    1
    21    20    21    1
    22    21    22    1
    23    22    23   ar
    24    23    24   ar
    25    24    25   ar
    26    25    26    1
    27    25    27   ar
    28    27    28   ar
    29    22    28   ar
    30     1    29    1
    31     1    30    1
    32     1    31    1
    33     2    32    1
    34     2    33    1
    35     3    34    1
    36     3    35    1
    37     4    36    1
    38     4    37    1
    39     8    38    1
    40     9    39    1
    41    10    40    1
    42    12    41    1
    43    12    42    1
    44    13    43    1
    45    16    44    1
    46    17    45    1
    47    17    46    1
    48    18    47    1
    49    19    48    1
    50    20    49    1
    51    20    50    1
    52    23    51    1
    53    24    52    1
    54    27    53    1
    55    28    54    1
