@<TRIPOS>MOLECULE
*****
 51 52 0 0 0
SMALL
GASTEIGER

@<TRIPOS>ATOM
      1 C          15.3535    9.4494    8.5242 C.3     1  UNL1        0.0788
      2 O          14.9768    8.6035    7.4415 O.3     1  UNL1       -0.4951
      3 C          14.0563    7.6356    7.7322 C.ar    1  UNL1        0.1201
      4 C          14.1257    6.4633    6.9759 C.ar    1  UNL1       -0.0197
      5 C          13.1504    5.4646    7.1099 C.ar    1  UNL1       -0.0551
      6 C          12.1297    5.5934    8.0608 C.ar    1  UNL1       -0.0457
      7 C          11.1586    4.4497    8.2974 C.3     1  UNL1       -0.0120
      8 C          10.1556    4.7336    9.4209 C.3     1  UNL1        0.0170
      9 N           9.2087    3.6862    9.7022 N.am    1  UNL1       -0.2991
     10 C           8.2761    3.8860   10.6887 C.2     1  UNL1        0.2997
     11 O           8.2153    4.8990   11.3825 O.2     1  UNL1       -0.2529
     12 N           7.4258    2.8383   10.8130 N.am    1  UNL1       -0.2968
     13 C           6.4247    2.7228   11.8643 C.3     1  UNL1        0.0423
     14 C           6.2086    1.2254   12.1045 C.3     1  UNL1        0.1046
     15 O           5.3457    0.6937   11.0898 O.3     1  UNL1       -0.3869
     16 C           5.6949    0.8602   13.4905 C.3     1  UNL1        0.1169
     17 O           6.5638    1.4238   14.4687 O.3     1  UNL1       -0.4893
     18 C           6.3744    1.0182   15.7568 C.ar    1  UNL1        0.1210
     19 C           6.6737    1.9698   16.7361 C.ar    1  UNL1       -0.0135
     20 C           6.6460    1.6251   18.0894 C.ar    1  UNL1        0.0190
     21 C           6.2446    0.3364   18.4591 C.ar    1  UNL1        0.2734
     22 N           6.0837   -0.0000   19.8783 N.pl3   1  UNL1        0.0796
     23 O           6.3346    0.8812   20.7123 O.2     1  UNL1        0.0414
     24 O           5.6801   -1.1383   20.1575 O.co2   1  UNL1       -0.5760
     25 C           5.9444   -0.6216   17.4834 C.ar    1  UNL1        0.0190
     26 C           6.0184   -0.2774   16.1318 C.ar    1  UNL1       -0.0135
     27 C          12.0730    6.7820    8.8037 C.ar    1  UNL1       -0.0551
     28 C          13.0208    7.7905    8.6432 C.ar    1  UNL1       -0.0197
     29 H          15.9686   10.2576    8.1174 H       1  UNL1        0.0660
     30 H          15.9572    8.8821    9.2383 H       1  UNL1        0.0660
     31 H          14.5092    9.9285    9.0287 H       1  UNL1        0.0660
     32 H          14.9511    6.3206    6.2824 H       1  UNL1        0.0654
     33 H          13.1986    4.5895    6.4650 H       1  UNL1        0.0621
     34 H          11.7421    3.5573    8.5611 H       1  UNL1        0.0328
     35 H          10.6229    4.2237    7.3672 H       1  UNL1        0.0328
     36 H           9.5602    5.6198    9.1706 H       1  UNL1        0.0466
     37 H          10.6901    4.9406   10.3573 H       1  UNL1        0.0466
     38 H           9.2599    2.8035    9.2173 H       1  UNL1        0.1502
     39 H           7.5382    2.0465   10.1983 H       1  UNL1        0.1503
     40 H           5.5095    3.2054   11.4994 H       1  UNL1        0.0489
     41 H           6.7614    3.2623   12.7563 H       1  UNL1        0.0489
     42 H           7.1765    0.7214   11.9820 H       1  UNL1        0.0643
     43 H           4.4884    1.1518   11.1590 H       1  UNL1        0.2100
     44 H           5.6738   -0.2346   13.5261 H       1  UNL1        0.0723
     45 H           4.6758    1.2304   13.6398 H       1  UNL1        0.0723
     46 H           6.9255    2.9879   16.4434 H       1  UNL1        0.0656
     47 H           6.9395    2.3635   18.8323 H       1  UNL1        0.0686
     48 H           5.6663   -1.6383   17.7526 H       1  UNL1        0.0686
     49 H           5.8160   -1.0500   15.3982 H       1  UNL1        0.0656
     50 H          11.2846    6.9696    9.5277 H       1  UNL1        0.0621
     51 H          12.8963    8.6880    9.2366 H       1  UNL1        0.0654
@<TRIPOS>UNITY_ATOM_ATTR
22 1
charge 1
24 1
charge -1
@<TRIPOS>BOND
     1     1     2    1
     2     2     3    1
     3     3     4   ar
     4     4     5   ar
     5     5     6   ar
     6     6     7    1
     7     7     8    1
     8     8     9    1
     9     9    10   am
    10    10    11    2
    11    10    12   am
    12    12    13    1
    13    14    16    1
    14    16    17    1
    15    17    18    1
    16    18    19   ar
    17    19    20   ar
    18    20    21   ar
    19    21    22    1
    20    22    23    2
    21    22    24    1
    22    21    25   ar
    23    25    26   ar
    24    18    26   ar
    25     6    27   ar
    26    27    28   ar
    27     3    28   ar
    28    14    15    1
    29    14    13    1
    30     1    29    1
    31     1    30    1
    32     1    31    1
    33     4    32    1
    34     5    33    1
    35     7    34    1
    36     7    35    1
    37     8    36    1
    38     8    37    1
    39     9    38    1
    40    12    39    1
    41    13    40    1
    42    13    41    1
    43    14    42    1
    44    15    43    1
    45    16    44    1
    46    16    45    1
    47    19    46    1
    48    20    47    1
    49    25    48    1
    50    26    49    1
    51    27    50    1
    52    28    51    1
