@<TRIPOS>MOLECULE
*****
 51 52 0 0 0
SMALL
GASTEIGER

@<TRIPOS>ATOM
      1 C           2.0058   -2.5486    1.9278 C.3     1  UNL1       -0.0307
      2 C           1.9252   -3.8799    1.2106 C.3     1  UNL1        0.0868
      3 O           2.6337   -3.6636   -0.0045 O.3     1  UNL1       -0.4919
      4 C           2.5784   -4.6463   -0.9475 C.ar    1  UNL1        0.1251
      5 C           3.8388   -5.1310   -1.3460 C.ar    1  UNL1       -0.0196
      6 C           3.9686   -6.0082   -2.4210 C.ar    1  UNL1       -0.0583
      7 C           2.8264   -6.4626   -3.0636 C.ar    1  UNL1       -0.0612
      8 C           1.5703   -5.9661   -2.6829 C.ar    1  UNL1       -0.0536
      9 C           1.4183   -5.0063   -1.6479 C.ar    1  UNL1        0.0113
     10 C           0.0111   -4.4679   -1.3884 C.3     1  UNL1        0.0417
     11 N          -0.0926   -3.2174   -0.6317 N.am    1  UNL1       -0.2952
     12 C          -1.1836   -2.9054    0.1498 C.2     1  UNL1        0.3000
     13 O          -2.2830   -3.4469    0.0051 O.2     1  UNL1       -0.2529
     14 N          -0.9349   -2.0023    1.1577 N.am    1  UNL1       -0.2968
     15 C          -1.9454   -1.4682    2.0668 C.3     1  UNL1        0.0423
     16 C          -1.3670   -0.5561    3.1870 C.3     1  UNL1        0.1046
     17 O          -0.0084   -0.8706    3.4989 O.3     1  UNL1       -0.3869
     18 C          -2.1746   -0.6449    4.4883 C.3     1  UNL1        0.1169
     19 O          -3.5338   -0.3348    4.2156 O.3     1  UNL1       -0.4893
     20 C          -4.3638   -0.2977    5.2986 C.ar    1  UNL1        0.1210
     21 C          -5.6693   -0.7378    5.0673 C.ar    1  UNL1       -0.0135
     22 C          -6.6453   -0.6083    6.0577 C.ar    1  UNL1        0.0190
     23 C          -6.2849   -0.1059    7.3132 C.ar    1  UNL1        0.2734
     24 N          -7.2664   -0.0980    8.4047 N.pl3   1  UNL1        0.0796
     25 O          -8.4040   -0.5243    8.1608 O.2     1  UNL1        0.0414
     26 O          -6.8903    0.3079    9.5138 O.co2   1  UNL1       -0.5760
     27 C          -4.9782    0.3374    7.5521 C.ar    1  UNL1        0.0190
     28 C          -4.0210    0.2465    6.5374 C.ar    1  UNL1       -0.0135
     29 H           1.2774   -2.5691    2.7282 H       1  UNL1        0.0262
     30 H           1.8029   -1.7093    1.2448 H       1  UNL1        0.0262
     31 H           2.9853   -2.3336    2.3494 H       1  UNL1        0.0262
     32 H           0.8711   -4.1211    1.0854 H       1  UNL1        0.0694
     33 H           2.3079   -4.7186    1.7912 H       1  UNL1        0.0694
     34 H           4.7348   -4.8012   -0.8237 H       1  UNL1        0.0654
     35 H           4.9531   -6.3237   -2.7600 H       1  UNL1        0.0619
     36 H           2.9146   -7.1888   -3.8701 H       1  UNL1        0.0618
     37 H           0.7003   -6.3186   -3.2359 H       1  UNL1        0.0622
     38 H          -0.5537   -5.2558   -0.8740 H       1  UNL1        0.0513
     39 H          -0.4658   -4.2655   -2.3523 H       1  UNL1        0.0513
     40 H           0.7696   -2.6988   -0.5382 H       1  UNL1        0.1506
     41 H          -0.0312   -1.5840    1.2740 H       1  UNL1        0.1503
     42 H          -2.5144   -2.3013    2.4939 H       1  UNL1        0.0489
     43 H          -2.6335   -0.8807    1.4508 H       1  UNL1        0.0489
     44 H          -1.3661    0.4805    2.8286 H       1  UNL1        0.0643
     45 H          -0.0121   -1.7577    3.9008 H       1  UNL1        0.2100
     46 H          -1.7164    0.0331    5.2195 H       1  UNL1        0.0723
     47 H          -2.1007   -1.6618    4.8976 H       1  UNL1        0.0723
     48 H          -5.9268   -1.1887    4.1107 H       1  UNL1        0.0656
     49 H          -7.6697   -0.8983    5.8349 H       1  UNL1        0.0686
     50 H          -4.6925    0.7668    8.5102 H       1  UNL1        0.0686
     51 H          -3.0263    0.6315    6.7360 H       1  UNL1        0.0656
@<TRIPOS>UNITY_ATOM_ATTR
24 1
charge 1
26 1
charge -1
@<TRIPOS>BOND
     1     1     2    1
     2     2     3    1
     3     3     4    1
     4     4     5   ar
     5     5     6   ar
     6     6     7   ar
     7     7     8   ar
     8     8     9   ar
     9     4     9   ar
    10     9    10    1
    11    10    11    1
    12    11    12   am
    13    12    13    2
    14    12    14   am
    15    14    15    1
    16    16    18    1
    17    18    19    1
    18    19    20    1
    19    20    21   ar
    20    21    22   ar
    21    22    23   ar
    22    23    24    1
    23    24    25    2
    24    24    26    1
    25    23    27   ar
    26    27    28   ar
    27    20    28   ar
    28    16    17    1
    29    16    15    1
    30     1    29    1
    31     1    30    1
    32     1    31    1
    33     2    32    1
    34     2    33    1
    35     5    34    1
    36     6    35    1
    37     7    36    1
    38     8    37    1
    39    10    38    1
    40    10    39    1
    41    11    40    1
    42    14    41    1
    43    15    42    1
    44    15    43    1
    45    16    44    1
    46    17    45    1
    47    18    46    1
    48    18    47    1
    49    21    48    1
    50    22    49    1
    51    27    50    1
    52    28    51    1
