@<TRIPOS>MOLECULE
*****
 65 66 0 0 0
SMALL
GASTEIGER

@<TRIPOS>ATOM
      1 C           6.0327   -0.4278    3.6701 C.3     1  UNL1       -0.0652
      2 C           5.5349   -1.3773    2.6166 C.3     1  UNL1       -0.0538
      3 C           5.0953   -0.5580    1.3954 C.3     1  UNL1       -0.0256
      4 C           4.5087   -1.3820    0.2333 C.3     1  UNL1        0.1073
      5 C           3.0432   -1.0513    0.5351 C.2     1  UNL1        0.2340
      6 O           2.4583   -1.5940    1.4735 O.2     1  UNL1       -0.2738
      7 N           2.4598   -0.0006   -0.1463 N.am    1  UNL1       -0.3138
      8 C           1.0258    0.0642   -0.1019 C.3     1  UNL1        0.0119
      9 C           0.3806    1.3247   -0.6101 C.3     1  UNL1       -0.0350
     10 C          -1.1609    1.2321   -0.6333 C.3     1  UNL1       -0.0453
     11 C          -1.7455    0.8438    0.7267 C.3     1  UNL1       -0.0626
     12 C          -1.7219    2.5749   -1.0825 C.3     1  UNL1       -0.0626
     13 N           4.9419   -2.8200    0.1376 N.am    1  UNL1       -0.2548
     14 C           3.9995   -3.9127    0.4124 C.2     1  UNL1        0.2614
     15 O           4.4054   -4.9538    0.9633 O.2     1  UNL1       -0.2689
     16 C           2.5629   -3.8079    0.0650 C.ar    1  UNL1        0.1156
     17 S           1.3664   -4.4345    1.1510 S.2     1  UNL1        0.0190
     18 N           0.0324   -3.7134    0.4417 N.ar    1  UNL1       -0.2031
     19 C           0.4159   -3.1309   -0.7016 C.ar    1  UNL1        0.1554
     20 C          -0.5432   -2.3507   -1.5420 C.2     1  UNL1        0.2624
     21 N          -1.8241   -2.1556   -1.0831 N.am    1  UNL1       -0.3240
     22 O          -0.2065   -1.7507   -2.5623 O.2     1  UNL1       -0.2687
     23 C           1.8635   -3.1880   -0.9599 C.ar    1  UNL1        0.0765
     24 N           2.4690   -2.5260   -1.9816 N.pl3   1  UNL1       -0.3551
     25 C           6.4220   -3.0844    0.0674 C.ar    1  UNL1        0.0403
     26 C           7.4011   -2.1781    0.5407 C.ar    1  UNL1       -0.0397
     27 C           8.7250   -2.5162    0.8298 C.ar    1  UNL1       -0.0571
     28 C           9.2445   -3.6723    0.3074 C.ar    1  UNL1       -0.0501
     29 C          10.7194   -3.9085    0.4044 C.3     1  UNL1       -0.0397
     30 C           8.3739   -4.4975   -0.4156 C.ar    1  UNL1       -0.0542
     31 C           6.9708   -4.2358   -0.5132 C.ar    1  UNL1       -0.0288
     32 C           6.1412   -5.1123   -1.4052 C.3     1  UNL1       -0.0379
     33 H           6.6117   -0.9817    4.4108 H       1  UNL1        0.0230
     34 H           5.1825    0.0627    4.1414 H       1  UNL1        0.0230
     35 H           6.6919    0.3276    3.2253 H       1  UNL1        0.0230
     36 H           4.7318   -2.0359    2.9564 H       1  UNL1        0.0263
     37 H           6.3608   -2.0669    2.4729 H       1  UNL1        0.0263
     38 H           5.8446    0.1355    0.9927 H       1  UNL1        0.0288
     39 H           4.3483    0.1505    1.7812 H       1  UNL1        0.0288
     40 H           4.7912   -0.9462   -0.7383 H       1  UNL1        0.0600
     41 H           2.9905    0.6674   -0.6886 H       1  UNL1        0.1487
     42 H           0.6591   -0.2643    0.8741 H       1  UNL1        0.0462
     43 H           0.7377   -0.6801   -0.8097 H       1  UNL1        0.0462
     44 H           0.7319    1.5050   -1.6344 H       1  UNL1        0.0283
     45 H           0.7072    2.1620    0.0089 H       1  UNL1        0.0283
     46 H          -1.4782    0.4895   -1.3745 H       1  UNL1        0.0296
     47 H          -1.4059    1.5410    1.4984 H       1  UNL1        0.0232
     48 H          -1.4485   -0.1656    1.0288 H       1  UNL1        0.0232
     49 H          -2.8400    0.8527    0.7079 H       1  UNL1        0.0232
     50 H          -1.3966    3.3678   -0.4025 H       1  UNL1        0.0232
     51 H          -2.8156    2.5598   -1.1014 H       1  UNL1        0.0232
     52 H          -1.3678    2.8176   -2.0899 H       1  UNL1        0.0232
     53 H          -2.1331   -2.4858   -0.1803 H       1  UNL1        0.1453
     54 H          -2.3844   -1.4760   -1.5838 H       1  UNL1        0.1453
     55 H           1.9582   -1.7263   -2.3717 H       1  UNL1        0.1424
     56 H           3.4697   -2.3629   -1.9697 H       1  UNL1        0.1424
     57 H           7.2060   -1.1694    0.8522 H       1  UNL1        0.0636
     58 H           9.3317   -1.8449    1.4393 H       1  UNL1        0.0621
     59 H          11.2018   -3.1707    1.0608 H       1  UNL1        0.0278
     60 H          11.1678   -3.7956   -0.5870 H       1  UNL1        0.0278
     61 H          10.9334   -4.8993    0.8089 H       1  UNL1        0.0278
     62 H           8.7962   -5.3488   -0.9448 H       1  UNL1        0.0623
     63 H           6.7609   -5.7920   -1.9926 H       1  UNL1        0.0278
     64 H           5.5848   -4.4772   -2.1043 H       1  UNL1        0.0278
     65 H           5.4492   -5.7342   -0.8432 H       1  UNL1        0.0278
@<TRIPOS>BOND
     1     1     2    1
     2     2     3    1
     3     5     6    2
     4     5     7   am
     5     7     8    1
     6     8     9    1
     7     9    10    1
     8    10    11    1
     9    10    12    1
    10     4    13    1
    11    13    14   am
    12    14    15    2
    13    14    16    1
    14    16    17   ar
    15    17    18   ar
    16    18    19   ar
    17    19    20    1
    18    20    21   am
    19    20    22    2
    20    19    23   ar
    21    16    23   ar
    22    23    24    1
    23    13    25    1
    24    25    26   ar
    25    26    27   ar
    26    27    28   ar
    27    28    29    1
    28    28    30   ar
    29    30    31   ar
    30    25    31   ar
    31    31    32    1
    32     4     5    1
    33     4     3    1
    34     1    33    1
    35     1    34    1
    36     1    35    1
    37     2    36    1
    38     2    37    1
    39     3    38    1
    40     3    39    1
    41     4    40    1
    42     7    41    1
    43     8    42    1
    44     8    43    1
    45     9    44    1
    46     9    45    1
    47    10    46    1
    48    11    47    1
    49    11    48    1
    50    11    49    1
    51    12    50    1
    52    12    51    1
    53    12    52    1
    54    21    53    1
    55    21    54    1
    56    24    55    1
    57    24    56    1
    58    26    57    1
    59    27    58    1
    60    29    59    1
    61    29    60    1
    62    29    61    1
    63    30    62    1
    64    32    63    1
    65    32    64    1
    66    32    65    1
