REMARK  8 active torsions:
REMARK  status: ('A' for Active; 'I' for Inactive)
REMARK    1  A    between atoms: C_3  and  C_4 
REMARK    2  A    between atoms: C_4  and  C_5 
REMARK       I    between atoms: C_5  and  N_7 
REMARK    3  A    between atoms: N_7  and  C_8 
REMARK    4  A    between atoms: C_8  and  C_9 
REMARK    5  A    between atoms: C_9  and  O_10 
REMARK    6  A    between atoms: C_9  and  C_11 
REMARK    7  A    between atoms: C_22  and  O_23 
REMARK    8  A    between atoms: C_25  and  O_26 
ROOT
ATOM      1  C   UNL d   1       1.030   0.021   0.028  0.00  0.00     0.050 C 
ATOM      2  C   UNL d   1       2.546   0.037   0.028  0.00  0.00    -0.034 A 
ATOM      3  C   UNL d   1       3.307  -1.093   0.026  0.00  0.00     0.033 A 
ATOM      4  C   UNL d   1       4.812  -0.959   0.018  0.00  0.00     0.295 A 
ATOM      5  O   UNL d   1       5.652  -1.842  -0.008  0.00  0.00    -0.259 OA
ATOM      6  O   UNL d   1       5.354   0.297   0.038  0.00  0.00    -0.274 OA
ATOM      7  C   UNL d   1       4.578   1.435   0.031  0.00  0.00     0.095 A 
ATOM      8  C   UNL d   1       5.332   2.606   0.028  0.00  0.00     0.075 A 
ATOM      9  C   UNL d   1       4.660   3.803   0.027  0.00  0.00     0.071 A 
ATOM     10  C   UNL d   1       3.270   3.821   0.028  0.00  0.00     0.074 A 
ATOM     11  C   UNL d   1       2.545   2.620   0.028  0.00  0.00     0.082 A 
ATOM     12  C   UNL d   1       3.191   1.377   0.028  0.00  0.00     0.038 A 
ENDROOT
BRANCH   3  13
ATOM     13  C   UNL d   1       2.617  -2.462   0.029  0.00  0.00     0.148 C 
BRANCH  13  14
ATOM     14  C   UNL d   1       3.448  -3.733   0.043  0.00  0.00     0.222 C 
ATOM     15  O   UNL d   1       4.668  -3.793   0.041  0.00  0.00    -0.273 OA
ATOM     16  N   UNL d   1       2.801  -4.939   0.073  0.00  0.00    -0.358 N 
ATOM     17  H   UNL d   1       1.803  -5.072  -0.029  0.00  0.00     0.162 HD
BRANCH  16  18
ATOM     18  C   UNL d   1       3.715  -6.060   0.049  0.00  0.00     0.159 C 
BRANCH  18  19
ATOM     19  C   UNL d   1       3.066  -7.424   0.032  0.00  0.00     0.169 C 
BRANCH  19  20
ATOM     20  O   UNL d   1       2.238  -7.505  -1.133  0.00  0.00    -0.389 OA
ATOM     21  H   UNL d   1       2.841  -7.451  -1.897  0.00  0.00     0.210 HD
ENDBRANCH  19  20
BRANCH  19  22
ATOM     22  C   UNL d   1       4.089  -8.541   0.020  0.00  0.00    -0.028 A 
ATOM     23  C   UNL d   1       5.478  -8.305   0.027  0.00  0.00     0.010 A 
ATOM     24  C   UNL d   1       6.387  -9.357   0.034  0.00  0.00     0.001 A 
ATOM     25  C   UNL d   1       5.922 -10.665   0.036  0.00  0.00     0.000 A 
ATOM     26  C   UNL d   1       4.551 -10.920   0.032  0.00  0.00     0.001 A 
ATOM     27  C   UNL d   1       3.638  -9.865   0.023  0.00  0.00     0.010 A 
ENDBRANCH  19  22
ENDBRANCH  18  19
ENDBRANCH  16  18
ENDBRANCH  13  14
ENDBRANCH   3  13
BRANCH  11  28
ATOM     28  O   UNL d   1       1.179   2.686   0.029  0.00  0.00    -0.360 OA
ATOM     29  H   UNL d   1       0.884   3.609   0.030  0.00  0.00     0.217 HD
ENDBRANCH  11  28
BRANCH   9  30
ATOM     30  O   UNL d   1       5.331   4.986   0.027  0.00  0.00    -0.361 OA
ATOM     31  H   UNL d   1       6.287   4.802   0.027  0.00  0.00     0.217 HD
ENDBRANCH   9  30
TORSDOF 8
