@<TRIPOS>MOLECULE
*****
 60 64 0 0 0
SMALL
GASTEIGER

@<TRIPOS>ATOM
      1 C           0.9447    0.0484    0.0833 C.3     1  UNL1       -0.0637
      2 C           2.4603    0.0596    0.1049 C.3     1  UNL1       -0.0376
      3 C           3.0467   -0.6816   -1.0988 C.3     1  UNL1        0.0292
      4 N           4.5105   -0.7133   -1.1124 N.ar    1  UNL1       -0.2778
      5 C           5.1533   -1.9383   -1.1109 C.ar    1  UNL1        0.3309
      6 O           4.5836   -3.0265   -1.1026 O.2     1  UNL1       -0.2464
      7 N           6.5208   -1.9117   -1.1177 N.ar    1  UNL1       -0.2743
      8 C           7.3072   -0.8039   -1.1105 C.ar    1  UNL1        0.2633
      9 O           8.5386   -0.8586   -1.0938 O.2     1  UNL1       -0.2670
     10 C           6.6204    0.4809   -1.1266 C.ar    1  UNL1        0.0826
     11 C           7.3629    1.6694   -1.1088 C.ar    1  UNL1       -0.0323
     12 C           6.7028    2.8902   -1.1061 C.ar    1  UNL1        0.0559
     13 C           7.3889    4.2119   -1.0679 C.2     1  UNL1        0.2498
     14 O           6.6836    5.2169   -1.0690 O.2     1  UNL1       -0.2698
     15 N           8.7811    4.2297   -1.0945 N.am    1  UNL1       -0.2809
     16 C           9.5314    5.4393   -1.1103 C.ar    1  UNL1        0.0430
     17 C           9.1740    6.4848   -0.2540 C.ar    1  UNL1       -0.0381
     18 C           9.9068    7.6797   -0.2137 C.ar    1  UNL1       -0.0383
     19 C          11.0032    7.8783   -1.0524 C.ar    1  UNL1        0.0377
     20 N          11.6917    9.0863   -1.1059 N.pl3   1  UNL1       -0.3294
     21 C          11.2672   10.0145   -2.1529 C.3     1  UNL1        0.0122
     22 C          12.5249   10.6611   -2.7346 C.3     1  UNL1       -0.0372
     23 C          13.3626   11.3288   -1.6423 C.3     1  UNL1       -0.0502
     24 C          13.6213   10.3830   -0.4598 C.3     1  UNL1       -0.0372
     25 C          12.3223    9.7254    0.0472 C.3     1  UNL1        0.0122
     26 C          11.3989    6.8036   -1.8982 C.ar    1  UNL1        0.0078
     27 C          12.5472    6.9052   -2.6939 C.ar    1  UNL1       -0.0340
     28 C          13.0476    5.7826   -3.3154 C.ar    1  UNL1        0.0282
     29 N          12.3689    4.6303   -3.4174 N.ar    1  UNL1       -0.2626
     30 C          11.1778    4.5857   -2.7787 C.ar    1  UNL1        0.0371
     31 C          10.6839    5.5787   -1.9171 C.ar    1  UNL1        0.0232
     32 C           5.3117    2.8434   -1.1427 C.ar    1  UNL1        0.0420
     33 N           4.5807    1.6903   -1.1884 N.ar    1  UNL1       -0.2362
     34 C           5.2362    0.5065   -1.1533 C.ar    1  UNL1        0.1497
     35 H           0.5600    0.6326    0.9247 H       1  UNL1        0.0230
     36 H           0.5573   -0.9708    0.1606 H       1  UNL1        0.0230
     37 H           0.5684    0.4980   -0.8416 H       1  UNL1        0.0230
     38 H           2.8317   -0.3859    1.0346 H       1  UNL1        0.0280
     39 H           2.7689    1.1064    0.1187 H       1  UNL1        0.0280
     40 H           2.7025   -0.2541   -2.0480 H       1  UNL1        0.0494
     41 H           2.6607   -1.7098   -1.0752 H       1  UNL1        0.0494
     42 H           6.9828   -2.8095   -1.1104 H       1  UNL1        0.1734
     43 H           8.4431    1.5959   -1.0862 H       1  UNL1        0.0634
     44 H           9.2946    3.3844   -1.2999 H       1  UNL1        0.1552
     45 H           8.3326    6.3645    0.4238 H       1  UNL1        0.0637
     46 H           9.5867    8.4625    0.4665 H       1  UNL1        0.0637
     47 H          10.6097   10.7817   -1.7244 H       1  UNL1        0.0464
     48 H          10.7084    9.5112   -2.9497 H       1  UNL1        0.0464
     49 H          12.2501   11.3865   -3.5059 H       1  UNL1        0.0280
     50 H          13.1434    9.9022   -3.2264 H       1  UNL1        0.0280
     51 H          12.8410   12.2243   -1.2859 H       1  UNL1        0.0266
     52 H          14.3170   11.6606   -2.0686 H       1  UNL1        0.0266
     53 H          14.1157   10.9344    0.3480 H       1  UNL1        0.0280
     54 H          14.3180    9.5984   -0.7845 H       1  UNL1        0.0280
     55 H          11.6654   10.4952    0.4722 H       1  UNL1        0.0464
     56 H          12.5635    9.0103    0.8414 H       1  UNL1        0.0464
     57 H          13.0994    7.8315   -2.7690 H       1  UNL1        0.0639
     58 H          14.0528    5.7900   -3.7235 H       1  UNL1        0.0830
     59 H          10.6181    3.6788   -2.9844 H       1  UNL1        0.0836
     60 H           4.7117    3.7536   -1.1305 H       1  UNL1        0.0838
@<TRIPOS>BOND
     1     1     2    1
     2     2     3    1
     3     3     4    1
     4     4     5   ar
     5     5     6    2
     6     5     7   ar
     7     7     8   ar
     8     8     9    2
     9     8    10   ar
    10    10    11   ar
    11    11    12   ar
    12    12    13    1
    13    13    14    2
    14    13    15   am
    15    15    16    1
    16    16    17   ar
    17    17    18   ar
    18    18    19   ar
    19    19    20    1
    20    20    21    1
    21    21    22    1
    22    22    23    1
    23    23    24    1
    24    24    25    1
    25    20    25    1
    26    19    26   ar
    27    26    27   ar
    28    27    28   ar
    29    28    29   ar
    30    29    30   ar
    31    30    31   ar
    32    16    31   ar
    33    26    31   ar
    34    12    32   ar
    35    32    33   ar
    36    33    34   ar
    37    10    34   ar
    38     4    34   ar
    39     1    35    1
    40     1    36    1
    41     1    37    1
    42     2    38    1
    43     2    39    1
    44     3    40    1
    45     3    41    1
    46     7    42    1
    47    11    43    1
    48    15    44    1
    49    17    45    1
    50    18    46    1
    51    21    47    1
    52    21    48    1
    53    22    49    1
    54    22    50    1
    55    23    51    1
    56    23    52    1
    57    24    53    1
    58    24    54    1
    59    25    55    1
    60    25    56    1
    61    27    57    1
    62    28    58    1
    63    30    59    1
    64    32    60    1
