@<TRIPOS>MOLECULE
*****
 38 40 0 0 0
SMALL
GASTEIGER

@<TRIPOS>ATOM
      1 C           2.4063    1.5234   -0.0403 C.3     1  UNL1        0.0119
      2 N           1.5363    0.3708    0.0040 N.ar    1  UNL1       -0.3494
      3 C           1.9878   -0.9113    0.0099 C.ar    1  UNL1        0.0090
      4 C           0.9244   -1.7941   -0.0045 C.ar    1  UNL1       -0.0134
      5 C           1.0132   -3.3146   -0.0282 C.3     1  UNL1        0.0525
      6 C           2.4523   -3.8877   -0.0672 C.2     1  UNL1        0.2334
      7 O           3.4904   -3.2163    0.0097 O.2     1  UNL1       -0.2739
      8 N           2.5791   -5.2678   -0.2101 N.am    1  UNL1       -0.2362
      9 N           3.8787   -5.7390    0.0538 N.pl3   1  UNL1       -0.2645
     10 C           4.1998   -7.0891   -0.0857 C.ar    1  UNL1        0.0446
     11 C           3.5044   -7.9622   -0.9285 C.ar    1  UNL1       -0.0367
     12 C           3.8068   -9.3283   -0.9504 C.ar    1  UNL1       -0.0247
     13 C           4.7989   -9.8290   -0.1168 C.ar    1  UNL1        0.1235
     14 F           5.0730  -11.1400   -0.1267 F       1  UNL1       -0.2055
     15 C           5.5083   -8.9865    0.7259 C.ar    1  UNL1       -0.0247
     16 C           5.2141   -7.6198    0.7324 C.ar    1  UNL1       -0.0367
     17 C          -0.2574   -0.9546   -0.0022 C.ar    1  UNL1        0.0035
     18 C          -1.6512   -1.1941   -0.0184 C.ar    1  UNL1       -0.0523
     19 C          -2.5485   -0.1116   -0.0200 C.ar    1  UNL1       -0.0611
     20 C          -2.0874    1.2011    0.0040 C.ar    1  UNL1       -0.0598
     21 C          -0.7215    1.4714    0.0241 C.ar    1  UNL1       -0.0376
     22 C           0.1662    0.3849    0.0135 C.ar    1  UNL1        0.0491
     23 H           3.4491    1.1916   -0.0334 H       1  UNL1        0.0456
     24 H           2.2135    2.1419    0.8383 H       1  UNL1        0.0456
     25 H           2.2054    2.0708   -0.9640 H       1  UNL1        0.0456
     26 H           3.0535   -1.0840    0.0100 H       1  UNL1        0.0812
     27 H           0.4765   -3.6829   -0.9113 H       1  UNL1        0.0408
     28 H           0.5029   -3.7108    0.8599 H       1  UNL1        0.0408
     29 H           1.8212   -5.9045    0.0158 H       1  UNL1        0.1727
     30 H           4.6237   -5.0332    0.0401 H       1  UNL1        0.1700
     31 H           2.7466   -7.5790   -1.6051 H       1  UNL1        0.0637
     32 H           3.2741  -10.0028   -1.6124 H       1  UNL1        0.0647
     33 H           6.2734   -9.3958    1.3780 H       1  UNL1        0.0647
     34 H           5.7585   -6.9693    1.4146 H       1  UNL1        0.0637
     35 H          -2.0396   -2.2075   -0.0352 H       1  UNL1        0.0624
     36 H          -3.6199   -0.2968   -0.0416 H       1  UNL1        0.0618
     37 H          -2.7925    2.0291    0.0038 H       1  UNL1        0.0618
     38 H          -0.3589    2.4946    0.0423 H       1  UNL1        0.0638
@<TRIPOS>BOND
     1     1     2    1
     2     2     3   ar
     3     3     4   ar
     4     4     5    1
     5     5     6    1
     6     6     7    2
     7     6     8   am
     8     8     9    1
     9     9    10    1
    10    10    11   ar
    11    11    12   ar
    12    12    13   ar
    13    13    14    1
    14    13    15   ar
    15    15    16   ar
    16    10    16   ar
    17     4    17   ar
    18    17    18   ar
    19    18    19   ar
    20    19    20   ar
    21    20    21   ar
    22    21    22   ar
    23    17    22   ar
    24     2    22   ar
    25     1    23    1
    26     1    24    1
    27     1    25    1
    28     3    26    1
    29     5    27    1
    30     5    28    1
    31     8    29    1
    32     9    30    1
    33    11    31    1
    34    12    32    1
    35    15    33    1
    36    16    34    1
    37    18    35    1
    38    19    36    1
    39    20    37    1
    40    21    38    1
