@<TRIPOS>MOLECULE
*****
 34 36 0 0 0
SMALL
GASTEIGER

@<TRIPOS>ATOM
      1 O           1.0010   -0.0406   -0.0242 O.2     1  UNL1       -0.2699
      2 C           2.2279   -0.0559    0.0938 C.2     1  UNL1        0.2483
      3 N           2.9168   -0.0067    1.3012 N.am    1  UNL1       -0.2815
      4 C           2.2576   -0.0382    2.5564 C.ar    1  UNL1        0.0343
      5 C           2.7275    0.7130    3.6388 C.ar    1  UNL1       -0.0404
      6 C           2.1109    0.6040    4.8958 C.ar    1  UNL1       -0.0594
      7 C           1.0108   -0.2377    5.0730 C.ar    1  UNL1       -0.0525
      8 C           0.5495   -1.0025    4.0017 C.ar    1  UNL1        0.0015
      9 C          -0.4762   -2.0108    4.1836 C.ar    1  UNL1        0.0658
     10 C          -0.4143   -3.3750    3.9899 C.ar    1  UNL1       -0.0166
     11 C          -1.7033   -3.8438    4.2838 C.ar    1  UNL1        0.0497
     12 N          -2.5322   -2.8608    4.6426 N.ar    1  UNL1       -0.1818
     13 N          -1.7663   -1.7556    4.5627 N.ar    1  UNL1       -0.2770
     14 C           1.1669   -0.8864    2.7508 C.ar    1  UNL1       -0.0313
     15 C           3.0352   -0.0022   -1.1530 C.ar    1  UNL1        0.0386
     16 C           4.1733   -0.7943   -1.3413 C.ar    1  UNL1       -0.0461
     17 C           4.9317   -0.6621   -2.5151 C.ar    1  UNL1       -0.0180
     18 C           4.5109    0.2057   -3.5256 C.ar    1  UNL1        0.1351
     19 O           5.2205    0.3032   -4.6913 O.3     1  UNL1       -0.5053
     20 C           3.3553    0.9728   -3.3521 C.ar    1  UNL1        0.0830
     21 CL          2.8382    2.0989   -4.5540 Cl      1  UNL1       -0.0797
     22 C           2.6137    0.8614   -2.1743 C.ar    1  UNL1       -0.0277
     23 H           3.8992    0.2392    1.2973 H       1  UNL1        0.1551
     24 H           3.5336    1.4317    3.5177 H       1  UNL1        0.0636
     25 H           2.4962    1.1603    5.7482 H       1  UNL1        0.0618
     26 H           0.5473   -0.3226    6.0538 H       1  UNL1        0.0624
     27 H           0.4522   -3.9422    3.6807 H       1  UNL1        0.0654
     28 H          -2.0680   -4.8618    4.2508 H       1  UNL1        0.0848
     29 H          -2.1899   -0.8570    4.7668 H       1  UNL1        0.1889
     30 H           0.8163   -1.5106    1.9322 H       1  UNL1        0.0643
     31 H           4.4580   -1.5380   -0.6012 H       1  UNL1        0.0626
     32 H           5.8500   -1.2331   -2.6224 H       1  UNL1        0.0655
     33 H           5.9098   -0.3793   -4.7262 H       1  UNL1        0.2922
     34 H           1.7080    1.4510   -2.0458 H       1  UNL1        0.0641
@<TRIPOS>BOND
     1     1     2    2
     2     2     3   am
     3     3     4    1
     4     4     5   ar
     5     5     6   ar
     6     6     7   ar
     7     7     8   ar
     8     8     9    1
     9     9    10   ar
    10    10    11   ar
    11    11    12   ar
    12    12    13   ar
    13     9    13   ar
    14     8    14   ar
    15     4    14   ar
    16     2    15    1
    17    15    16   ar
    18    16    17   ar
    19    17    18   ar
    20    18    19    1
    21    18    20   ar
    22    20    21    1
    23    20    22   ar
    24    15    22   ar
    25     3    23    1
    26     5    24    1
    27     6    25    1
    28     7    26    1
    29    10    27    1
    30    11    28    1
    31    13    29    1
    32    14    30    1
    33    16    31    1
    34    17    32    1
    35    19    33    1
    36    22    34    1
