@<TRIPOS>MOLECULE
*****
 65 67 0 0 0
SMALL
GASTEIGER

@<TRIPOS>ATOM
      1 C           0.9254   -0.0172   -0.0326 C.3     1  UNL1       -0.0584
      2 C           2.4512   -0.0122   -0.1005 C.3     1  UNL1        0.0027
      3 C           2.8794    0.9292   -1.1663 C.ar    1  UNL1        0.1051
      4 C           2.7375    2.2959   -1.1922 C.ar    1  UNL1       -0.0204
      5 C           3.1332    2.7117   -2.4616 C.ar    1  UNL1       -0.0189
      6 C           3.5642    1.5915   -3.1416 C.ar    1  UNL1        0.1221
      7 C           4.1090    1.4713   -4.5308 C.3     1  UNL1        0.0673
      8 N           4.3169    2.7925   -5.1441 N.pl3   1  UNL1       -0.3367
      9 C           4.5568    3.0240   -6.4784 C.ar    1  UNL1        0.0300
     10 C           5.3045    4.1615   -6.8517 C.ar    1  UNL1       -0.0286
     11 C           5.5622    4.4725   -8.1955 C.ar    1  UNL1        0.0403
     12 C           6.2061    5.7725   -8.5652 C.2     1  UNL1        0.2442
     13 O           6.5141    6.5695   -7.6858 O.2     1  UNL1       -0.2702
     14 N           6.3622    6.0594   -9.9136 N.am    1  UNL1       -0.3099
     15 C           6.8722    7.3477  -10.3554 C.3     1  UNL1        0.0275
     16 C           6.9662    7.4465  -11.8802 C.3     1  UNL1        0.0271
     17 N           7.5000    8.7070  -12.3585 N.am    1  UNL1       -0.3140
     18 C           7.7008    9.0638  -13.6616 C.2     1  UNL1        0.2100
     19 C           7.3430    8.0839  -14.7505 C.3     1  UNL1        0.0121
     20 O           8.1668   10.1710  -13.9252 O.2     1  UNL1       -0.2761
     21 C           5.1101    3.5855   -9.1540 C.ar    1  UNL1       -0.0228
     22 C           4.2824    2.5160   -8.7809 C.ar    1  UNL1        0.1110
     23 S           3.7826    1.4781  -10.0919 S.O2    1  UNL1        0.0724
     24 O           2.9332    2.2858  -10.9508 O.2     1  UNL1       -0.1500
     25 O           5.0908    1.0504  -10.5175 O.2     1  UNL1       -0.1500
     26 N           2.8509    0.2030   -9.4662 N.pl3   1  UNL1       -0.2160
     27 C           2.2579   -0.8034  -10.3181 C.ar    1  UNL1        0.0509
     28 C           0.9256   -1.2080  -10.1260 C.ar    1  UNL1       -0.0391
     29 C           0.3754   -2.2449  -10.9074 C.ar    1  UNL1       -0.0600
     30 C           1.1252   -2.8489  -11.9126 C.ar    1  UNL1       -0.0614
     31 C           2.4439   -2.4778  -12.0852 C.ar    1  UNL1       -0.0570
     32 C           3.0133   -1.4882  -11.2810 C.ar    1  UNL1       -0.0281
     33 C           4.4310   -1.1569  -11.5652 C.3     1  UNL1       -0.0379
     34 C           4.0373    2.2058   -7.4621 C.ar    1  UNL1       -0.0142
     35 O           3.4011    0.4748   -2.3522 O.2     1  UNL1       -0.4630
     36 H           0.5677   -0.6139    0.8099 H       1  UNL1        0.0234
     37 H           0.4994   -0.4178   -0.9583 H       1  UNL1        0.0234
     38 H           0.5303    0.9998    0.0930 H       1  UNL1        0.0234
     39 H           2.8428   -1.0239   -0.2349 H       1  UNL1        0.0341
     40 H           2.8350    0.3612    0.8590 H       1  UNL1        0.0341
     41 H           2.3273    2.9002   -0.3989 H       1  UNL1        0.0652
     42 H           3.1028    3.7187   -2.8423 H       1  UNL1        0.0652
     43 H           3.4374    0.8308   -5.1172 H       1  UNL1        0.0542
     44 H           5.0884    0.9815   -4.5074 H       1  UNL1        0.0542
     45 H           3.8310    3.5671   -4.7049 H       1  UNL1        0.1465
     46 H           5.7135    4.8004   -6.0699 H       1  UNL1        0.0643
     47 H           6.0531    5.4169  -10.6265 H       1  UNL1        0.1491
     48 H           7.8586    7.4884   -9.9019 H       1  UNL1        0.0477
     49 H           6.2117    8.1299   -9.9638 H       1  UNL1        0.0477
     50 H           5.9733    7.3171  -12.3274 H       1  UNL1        0.0477
     51 H           7.6080    6.6466  -12.2670 H       1  UNL1        0.0477
     52 H           7.7687    9.4252  -11.6934 H       1  UNL1        0.1487
     53 H           6.9409    7.1441  -14.3720 H       1  UNL1        0.0322
     54 H           8.2402    7.8548  -15.3318 H       1  UNL1        0.0322
     55 H           6.5876    8.5343  -15.4001 H       1  UNL1        0.0322
     56 H           5.3928    3.6746  -10.1987 H       1  UNL1        0.0645
     57 H           2.6317    0.1476   -8.4784 H       1  UNL1        0.1737
     58 H           0.2755   -0.7214   -9.4019 H       1  UNL1        0.0636
     59 H          -0.6450   -2.5867  -10.7472 H       1  UNL1        0.0618
     60 H           0.6981   -3.5999  -12.5707 H       1  UNL1        0.0618
     61 H           3.0520   -2.9464  -12.8551 H       1  UNL1        0.0621
     62 H           4.9396   -1.8287  -12.2506 H       1  UNL1        0.0278
     63 H           4.9916   -1.1707  -10.6233 H       1  UNL1        0.0278
     64 H           4.3948   -0.1985  -12.0882 H       1  UNL1        0.0278
     65 H           3.4605    1.3379   -7.1919 H       1  UNL1        0.0656
@<TRIPOS>BOND
     1     1     2    1
     2     2     3    1
     3     3     4   ar
     4     4     5   ar
     5     5     6   ar
     6     6     7    1
     7     7     8    1
     8     8     9    1
     9     9    10   ar
    10    10    11   ar
    11    11    12    1
    12    12    13    2
    13    12    14   am
    14    14    15    1
    15    15    16    1
    16    16    17    1
    17    17    18   am
    18    18    19    1
    19    18    20    2
    20    11    21   ar
    21    21    22   ar
    22    22    23    1
    23    23    24    2
    24    23    25    2
    25    23    26    1
    26    26    27    1
    27    27    28   ar
    28    28    29   ar
    29    29    30   ar
    30    30    31   ar
    31    31    32   ar
    32    27    32   ar
    33    32    33    1
    34    22    34   ar
    35     9    34   ar
    36     6    35   ar
    37     3    35   ar
    38     1    36    1
    39     1    37    1
    40     1    38    1
    41     2    39    1
    42     2    40    1
    43     4    41    1
    44     5    42    1
    45     7    43    1
    46     7    44    1
    47     8    45    1
    48    10    46    1
    49    14    47    1
    50    15    48    1
    51    15    49    1
    52    16    50    1
    53    16    51    1
    54    17    52    1
    55    19    53    1
    56    19    54    1
    57    19    55    1
    58    21    56    1
    59    26    57    1
    60    28    58    1
    61    29    59    1
    62    30    60    1
    63    31    61    1
    64    33    62    1
    65    33    63    1
    66    33    64    1
    67    34    65    1
