REMARK  4 active torsions:
REMARK  status: ('A' for Active; 'I' for Inactive)
REMARK    1  A    between atoms: C_12  and  N_13 
REMARK       I    between atoms: N_13  and  C_14 
REMARK    2  A    between atoms: C_14  and  C_16 
REMARK    3  A    between atoms: C_16  and  S_17 
REMARK    4  A    between atoms: S_17  and  C_18 
ROOT
ATOM      1  N   UNL d   1       5.712   3.292   1.197  0.00  0.00    -0.330 N 
ATOM      2  C   UNL d   1       6.265   4.583   1.200  0.00  0.00     0.229 C 
ATOM      3  O   UNL d   1       6.114   5.358   0.260  0.00  0.00    -0.273 OA
ATOM      4  H   UNL d   1       6.086   2.598   1.829  0.00  0.00     0.165 HD
ENDROOT
BRANCH   1   5
ATOM      5  C   UNL d   1       4.978   2.812   0.028  0.00  0.00     0.264 A 
ATOM      6  O   UNL d   1       3.722   3.544  -0.003  0.00  0.00    -0.353 OA
ATOM      7  C   UNL d   1       2.610   2.623  -0.074  0.00  0.00     0.156 A 
ATOM      8  C   UNL d   1       3.214   1.295   0.033  0.00  0.00     0.012 A 
ATOM      9  C   UNL d   1       1.885   2.787  -1.403  0.00  0.00     0.045 C 
ATOM     10  C   UNL d   1       4.542   1.388   0.088  0.00  0.00     0.070 A 
ATOM     11  C   UNL d   1       2.526  -0.002  -0.005  0.00  0.00     0.060 A 
ATOM     12  C   UNL d   1       5.309   0.150   0.005  0.00  0.00     0.272 A 
ATOM     13  N   UNL d   1       4.565  -1.017  -0.039  0.00  0.00    -0.243 N 
ATOM     14  O   UNL d   1       6.542   0.155  -0.011  0.00  0.00    -0.266 OA
ATOM     15  N   UNL d   1       3.191  -1.116  -0.039  0.00  0.00    -0.176 NA
ATOM     16  H   UNL d   1       5.059  -1.904  -0.069  0.00  0.00     0.192 HD
ATOM     17  C   UNL d   1       1.007  -0.054   0.024  0.00  0.00     0.073 C 
ENDBRANCH   1   5
BRANCH   2  18
ATOM     18  C   UNL d   1       7.136   4.920   2.423  0.00  0.00     0.185 C 
BRANCH  18  19
ATOM     19  S   UNL d   1       7.762   6.635   2.439  0.00  0.00    -0.081 SA
BRANCH  19  20
ATOM     20  C   UNL d   1       8.652   6.966   3.907  0.00  0.00     0.192 A 
ATOM     21  N   UNL d   1       8.989   8.186   4.280  0.00  0.00    -0.123 NA
ATOM     22  N   UNL d   1       9.702   8.112   5.458  0.00  0.00    -0.134 NA
ATOM     23  C   UNL d   1       9.801   6.844   5.793  0.00  0.00     0.130 A 
ATOM     24  N   UNL d   1       9.173   6.086   4.818  0.00  0.00    -0.311 N 
ATOM     25  C   UNL d   1      10.500   6.301   7.007  0.00  0.00     0.081 C 
ATOM     26  C   UNL d   1       9.126   4.650   4.805  0.00  0.00     0.133 C 
ATOM     27  C   UNL d   1      10.439   3.985   5.157  0.00  0.00     0.020 C 
ATOM     28  C   UNL d   1      10.569   3.802   6.660  0.00  0.00     0.002 C 
ATOM     29  C   UNL d   1       9.946   4.950   7.464  0.00  0.00     0.008 C 
ENDBRANCH  19  20
ENDBRANCH  18  19
ENDBRANCH   2  18
TORSDOF 4
