@<TRIPOS>MOLECULE
*****
 53 57 0 0 0
SMALL
GASTEIGER

@<TRIPOS>ATOM
      1 C           1.0291   -0.0870    0.0042 C.3     1  UNL1        0.0789
      2 O           2.4560   -0.1253   -0.0694 O.3     1  UNL1       -0.4936
      3 C           3.0307   -1.3609   -0.2454 C.ar    1  UNL1        0.1385
      4 C           4.1217   -1.6383    0.6002 C.ar    1  UNL1       -0.0164
      5 C           4.8202   -2.8606    0.5228 C.ar    1  UNL1       -0.0310
      6 C           4.4660   -3.8024   -0.4463 C.ar    1  UNL1        0.0878
      7 N           5.1684   -5.0371   -0.5627 N.ar    1  UNL1       -0.1491
      8 N           5.6527   -5.4360   -1.7568 N.ar    1  UNL1       -0.1471
      9 C           6.2537   -6.5979   -1.4652 C.ar    1  UNL1        0.1133
     10 C           7.0018   -7.4314   -2.3005 C.ar    1  UNL1       -0.0306
     11 C           7.4342   -8.6353   -1.7059 C.ar    1  UNL1       -0.0383
     12 C           7.1650   -9.0545   -0.3714 C.ar    1  UNL1        0.0359
     13 N           7.6451  -10.3396    0.1042 N.am    1  UNL1       -0.2819
     14 C           8.3886  -11.2531   -0.6509 C.2     1  UNL1        0.2412
     15 O           8.7321  -11.0952   -1.8262 O.2     1  UNL1       -0.2705
     16 C           8.8007  -12.5367    0.0095 C.2     1  UNL1        0.0039
     17 C           9.5523  -13.4044   -0.7078 C.2     1  UNL1       -0.0144
     18 C           9.9798  -14.6786   -0.2193 C.ar    1  UNL1        0.1287
     19 C           9.2801  -15.6080    0.5418 C.ar    1  UNL1       -0.0158
     20 C          10.0905  -16.7519    0.7088 C.ar    1  UNL1       -0.0153
     21 C          11.2767  -16.4862    0.0708 C.ar    1  UNL1        0.1357
     22 C          12.4771  -17.2908   -0.1216 C.ar    1  UNL1        0.0174
     23 C          13.7342  -16.8528    0.3158 C.ar    1  UNL1       -0.0484
     24 C          14.8772  -17.6221    0.0650 C.ar    1  UNL1       -0.0258
     25 C          14.7491  -18.8745   -0.5247 C.ar    1  UNL1        0.1234
     26 F          15.8442  -19.5991   -0.7898 F       1  UNL1       -0.2055
     27 C          13.4984  -19.3845   -0.8428 C.ar    1  UNL1       -0.0258
     28 C          12.3696  -18.5762   -0.6816 C.ar    1  UNL1       -0.0484
     29 O          11.2191  -15.2464   -0.5081 O.2     1  UNL1       -0.4554
     30 C           6.4258   -8.1902    0.4918 C.ar    1  UNL1       -0.0111
     31 C           5.9958   -6.9365   -0.0660 C.ar    1  UNL1        0.1149
     32 N           5.3567   -5.8828    0.4912 N.ar    1  UNL1       -0.1470
     33 C           3.4337   -3.5016   -1.3447 C.ar    1  UNL1       -0.0126
     34 C           2.7149   -2.2957   -1.2427 C.ar    1  UNL1        0.0846
     35 CL          1.5162   -2.0465   -2.4631 Cl      1  UNL1       -0.0797
     36 H           0.7256    0.9447    0.2167 H       1  UNL1        0.0660
     37 H           0.6500   -0.7262    0.8077 H       1  UNL1        0.0660
     38 H           0.5446   -0.3313   -0.9393 H       1  UNL1        0.0660
     39 H           4.4413   -0.8919    1.3277 H       1  UNL1        0.0655
     40 H           5.6737   -3.0337    1.1754 H       1  UNL1        0.0640
     41 H           7.2449   -7.1926   -3.3271 H       1  UNL1        0.0641
     42 H           8.0123   -9.2586   -2.3783 H       1  UNL1        0.0637
     43 H           7.4171  -10.5793    1.0628 H       1  UNL1        0.1551
     44 H           8.5002  -12.7336    1.0279 H       1  UNL1        0.0671
     45 H           9.8599  -13.1654   -1.7265 H       1  UNL1        0.0656
     46 H           8.2702  -15.4834    0.9022 H       1  UNL1        0.0655
     47 H           9.8523  -17.6682    1.2281 H       1  UNL1        0.0656
     48 H          13.8294  -15.9199    0.8664 H       1  UNL1        0.0625
     49 H          15.8641  -17.2559    0.3301 H       1  UNL1        0.0646
     50 H          13.4096  -20.3971   -1.2238 H       1  UNL1        0.0646
     51 H          11.4015  -18.9552   -1.0018 H       1  UNL1        0.0625
     52 H           6.1830   -8.4319    1.5188 H       1  UNL1        0.0659
     53 H           3.1513   -4.2173   -2.1143 H       1  UNL1        0.0655
@<TRIPOS>BOND
     1     1     2    1
     2     2     3    1
     3     3     4   ar
     4     4     5   ar
     5     5     6   ar
     6     6     7    1
     7     7     8   ar
     8     8     9   ar
     9     9    10   ar
    10    10    11   ar
    11    11    12   ar
    12    12    13    1
    13    13    14   am
    14    14    15    2
    15    14    16    1
    16    16    17    2
    17    17    18    1
    18    18    19   ar
    19    19    20   ar
    20    20    21   ar
    21    21    22    1
    22    22    23   ar
    23    23    24   ar
    24    24    25   ar
    25    25    26    1
    26    25    27   ar
    27    27    28   ar
    28    22    28   ar
    29    21    29   ar
    30    18    29   ar
    31    12    30   ar
    32    30    31   ar
    33     9    31   ar
    34    31    32   ar
    35     7    32   ar
    36     6    33   ar
    37    33    34   ar
    38     3    34   ar
    39    34    35    1
    40     1    36    1
    41     1    37    1
    42     1    38    1
    43     4    39    1
    44     5    40    1
    45    10    41    1
    46    11    42    1
    47    13    43    1
    48    16    44    1
    49    17    45    1
    50    19    46    1
    51    20    47    1
    52    23    48    1
    53    24    49    1
    54    27    50    1
    55    28    51    1
    56    30    52    1
    57    33    53    1
