@<TRIPOS>MOLECULE
*****
 43 44 0 0 0
SMALL
GASTEIGER

@<TRIPOS>ATOM
      1 C          -0.3448    2.5457   -0.0041 C.3     1  UNL1       -0.0382
      2 C           0.3805    1.2298    0.0044 C.ar    1  UNL1       -0.0284
      3 C           1.7852    1.2373    0.0077 C.ar    1  UNL1       -0.0156
      4 C           2.5085    0.0486   -0.0045 C.ar    1  UNL1        0.1218
      5 O           3.8733   -0.0404   -0.0167 O.3     1  UNL1       -0.4827
      6 C           4.6197    1.1768   -0.0260 C.3     1  UNL1        0.1664
      7 C           6.1238    0.8777   -0.0781 C.2     1  UNL1        0.2653
      8 O           6.6022   -0.2524   -0.1598 O.2     1  UNL1       -0.2707
      9 N           6.9237    2.0052   -0.0361 N.am    1  UNL1       -0.2290
     10 N           8.4014    1.8564   -0.1418 N.3     1  UNL1       -0.1076
     11 S           9.2368    3.3300   -0.1552 S.O2    1  UNL1        0.0800
     12 O           8.8886    3.9094   -1.4287 O.2     1  UNL1       -0.1515
     13 O           8.9121    3.9449    1.1210 O.2     1  UNL1       -0.1515
     14 C          10.9803    3.0273   -0.1470 C.ar    1  UNL1        0.1834
     15 C          11.4781    1.7108   -0.1149 C.ar    1  UNL1       -0.0286
     16 C          12.8524    1.4751    0.0400 C.ar    1  UNL1       -0.0595
     17 C          13.7482    2.5378    0.0947 C.ar    1  UNL1       -0.0552
     18 C          13.2704    3.8451    0.0361 C.ar    1  UNL1        0.0176
     19 C          11.8867    4.1063   -0.0804 C.ar    1  UNL1        0.2993
     20 N          11.4981    5.5353   -0.1493 N.pl3   1  UNL1        0.0816
     21 O          12.4112    6.3712   -0.0955 O.2     1  UNL1        0.0415
     22 O          10.3146    5.8467   -0.2761 O.co2   1  UNL1       -0.5760
     23 C           1.8164   -1.1686   -0.0062 C.ar    1  UNL1       -0.0156
     24 C           0.4088   -1.2099    0.0001 C.ar    1  UNL1       -0.0284
     25 C          -0.3023   -2.5363    0.0085 C.3     1  UNL1       -0.0382
     26 C          -0.3036    0.0018    0.0005 C.ar    1  UNL1        0.0470
     27 CL         -2.0397   -0.0123   -0.0037 Cl      1  UNL1       -0.0830
     28 H           0.3566    3.3867    0.0165 H       1  UNL1        0.0278
     29 H          -0.9859    2.6332    0.8780 H       1  UNL1        0.0278
     30 H          -0.9433    2.6404   -0.9152 H       1  UNL1        0.0278
     31 H           2.2907    2.1967    0.0185 H       1  UNL1        0.0657
     32 H           4.4131    1.7551    0.8839 H       1  UNL1        0.0795
     33 H           4.3710    1.7688   -0.9168 H       1  UNL1        0.0795
     34 H           6.5718    2.9544    0.0950 H       1  UNL1        0.1707
     35 H           8.6869    1.1282   -0.8040 H       1  UNL1        0.1716
     36 H          10.8271    0.8440   -0.1920 H       1  UNL1        0.0639
     37 H          13.2307    0.4574    0.1355 H       1  UNL1        0.0618
     38 H          14.8184    2.3536    0.1804 H       1  UNL1        0.0620
     39 H          13.9957    4.6572    0.0951 H       1  UNL1        0.0686
     40 H           2.3857   -2.0973   -0.0115 H       1  UNL1        0.0657
     41 H           0.4012   -3.3747    0.0117 H       1  UNL1        0.0278
     42 H          -0.9320   -2.6380   -0.8820 H       1  UNL1        0.0278
     43 H          -0.9252   -2.6273    0.9051 H       1  UNL1        0.0278
@<TRIPOS>UNITY_ATOM_ATTR
20 1
charge 1
22 1
charge -1
@<TRIPOS>BOND
     1     1     2    1
     2     2     3   ar
     3     3     4   ar
     4     4     5    1
     5     5     6    1
     6     6     7    1
     7     7     8    2
     8     7     9   am
     9     9    10    1
    10    10    11    1
    11    11    12    2
    12    11    13    2
    13    11    14    1
    14    14    15   ar
    15    15    16   ar
    16    16    17   ar
    17    17    18   ar
    18    18    19   ar
    19    14    19   ar
    20    19    20    1
    21    20    21    2
    22    20    22    1
    23     4    23   ar
    24    23    24   ar
    25    24    25    1
    26    24    26   ar
    27     2    26   ar
    28    26    27    1
    29     1    28    1
    30     1    29    1
    31     1    30    1
    32     3    31    1
    33     6    32    1
    34     6    33    1
    35     9    34    1
    36    10    35    1
    37    15    36    1
    38    16    37    1
    39    17    38    1
    40    18    39    1
    41    23    40    1
    42    25    41    1
    43    25    42    1
    44    25    43    1
