REMARK  10 active torsions:
REMARK  status: ('A' for Active; 'I' for Inactive)
REMARK    1  A    between atoms: C_2  and  C_3 
REMARK    2  A    between atoms: C_3  and  S_4 
REMARK    3  A    between atoms: S_4  and  C_5 
REMARK    4  A    between atoms: C_8  and  C_9 
REMARK       I    between atoms: C_9  and  N_11 
REMARK    5  A    between atoms: N_11  and  C_12 
REMARK    6  A    between atoms: C_13  and  C_12 
REMARK    7  A    between atoms: C_13  and  N_24 
REMARK    8  A    between atoms: C_13  and  C_14 
REMARK    9  A    between atoms: C_17  and  O_18 
REMARK   10  A    between atoms: C_20  and  O_21 
ROOT
ATOM      1  C   UNL d   1       6.935  -5.149  -8.864  0.00  0.00     0.238 C 
ENDROOT
BRANCH   1   2
ATOM      2  N   UNL d   1       7.517  -5.647 -10.215  0.00  0.00    -0.061 N 
ATOM      3  C   UNL d   1       8.915  -5.058 -10.517  0.00  0.00     0.236 C 
ATOM      4  C   UNL d   1       9.443  -5.591 -11.846  0.00  0.00     0.028 C 
ATOM      5  C   UNL d   1       9.505  -7.107 -11.804  0.00  0.00     0.003 C 
ATOM      6  C   UNL d   1       8.090  -7.631 -11.641  0.00  0.00     0.028 C 
ATOM      7  C   UNL d   1       7.519  -7.172 -10.306  0.00  0.00     0.236 C 
ATOM      8  H   UNL d   1       6.891  -5.280 -10.942  0.00  0.00     0.280 HD
ENDBRANCH   1   2
BRANCH   1   9
ATOM      9  C   UNL d   1       7.085  -3.651  -8.685  0.00  0.00    -0.023 A 
ATOM     10  C   UNL d   1       6.471  -2.732  -9.545  0.00  0.00     0.012 A 
ATOM     11  C   UNL d   1       6.765  -1.372  -9.437  0.00  0.00     0.040 A 
ATOM     12  C   UNL d   1       7.601  -0.892  -8.418  0.00  0.00     0.101 A 
ATOM     13  C   UNL d   1       8.199  -1.808  -7.536  0.00  0.00     0.102 A 
ATOM     14  C   UNL d   1       7.922  -3.172  -7.670  0.00  0.00     0.049 A 
BRANCH  12  15
ATOM     15  O   UNL d   1       7.726   0.474  -8.409  0.00  0.00    -0.353 OA
ATOM     16  C   UNL d   1       8.428   1.063  -7.317  0.00  0.00     0.210 C 
ENDBRANCH  12  15
BRANCH  13  17
ATOM     17  O   UNL d   1       9.069  -1.333  -6.599  0.00  0.00    -0.353 OA
ATOM     18  C   UNL d   1       9.714  -2.244  -5.727  0.00  0.00     0.210 C 
ENDBRANCH  13  17
ENDBRANCH   1   9
BRANCH   1  19
ATOM     19  C   UNL d   1       5.439  -5.555  -8.634  0.00  0.00     0.161 C 
BRANCH  19  20
ATOM     20  N   UNL d   1       5.205  -6.123  -7.305  0.00  0.00    -0.354 N 
ATOM     21  C   UNL d   1       3.958  -6.525  -6.868  0.00  0.00     0.256 C 
ATOM     22  O   UNL d   1       2.977  -6.461  -7.609  0.00  0.00    -0.268 OA
ATOM     23  H   UNL d   1       5.961  -6.111  -6.628  0.00  0.00     0.162 HD
BRANCH  21  24
ATOM     24  C   UNL d   1       3.826  -7.065  -5.485  0.00  0.00     0.090 A 
ATOM     25  C   UNL d   1       2.600  -7.509  -5.033  0.00  0.00     0.139 A 
ATOM     26  N   UNL d   1       2.392  -8.054  -3.805  0.00  0.00    -0.234 NA
ATOM     27  C   UNL d   1       3.452  -8.166  -2.989  0.00  0.00     0.189 A 
ATOM     28  N   UNL d   1       4.682  -7.765  -3.317  0.00  0.00    -0.210 NA
ATOM     29  C   UNL d   1       4.829  -7.228  -4.548  0.00  0.00     0.146 A 
ATOM     30 CL   UNL d   1       6.481  -6.783  -4.803  0.00  0.00    -0.061 Cl
BRANCH  27  31
ATOM     31  S   UNL d   1       3.179  -8.717  -1.326  0.00  0.00    -0.090 SA
BRANCH  31  32
ATOM     32  C   UNL d   1       3.863 -10.412  -1.387  0.00  0.00     0.082 C 
BRANCH  32  33
ATOM     33  C   UNL d   1       3.728 -11.063  -0.003  0.00  0.00     0.006 C 
ATOM     34  C   UNL d   1       4.258 -12.491   0.009  0.00  0.00     0.006 C 
ENDBRANCH  32  33
ENDBRANCH  31  32
ENDBRANCH  27  31
ENDBRANCH  21  24
ENDBRANCH  19  20
ENDBRANCH   1  19
TORSDOF 10
