@<TRIPOS>MOLECULE
*****
 52 54 0 0 0
SMALL
GASTEIGER

@<TRIPOS>ATOM
      1 C           1.0376   -0.0009   -0.1258 C.3     1  UNL1        0.0788
      2 O           2.4661    0.0401   -0.1831 O.3     1  UNL1       -0.4949
      3 C           3.1333   -1.1363   -0.4392 C.ar    1  UNL1        0.1268
      4 C           2.8185   -1.8717   -1.6619 C.ar    1  UNL1       -0.0133
      5 C           3.4726   -2.9759   -2.0758 C.ar    1  UNL1        0.0197
      6 C           4.5746   -3.4291   -1.2241 C.ar    1  UNL1        0.2784
      7 C           4.9072   -2.6534    0.0019 C.ar    1  UNL1        0.2817
      8 C           4.1533   -1.4710    0.3678 C.ar    1  UNL1        0.0578
      9 N           5.8947   -3.2084    0.6046 N.2     1  UNL1       -0.1659
     10 C           6.2824   -4.4589   -0.0968 C.3     1  UNL1        0.3955
     11 S           6.1257   -5.9930    0.8588 S.3     1  UNL1       -0.0025
     12 C           7.1577   -5.6825    2.3654 C.3     1  UNL1        0.0829
     13 C           7.1228   -6.9055    3.3182 C.2     1  UNL1        0.2260
     14 O           6.4589   -7.9042    3.0455 O.2     1  UNL1       -0.2747
     15 N           7.8485   -6.8155    4.4998 N.am    1  UNL1       -0.2950
     16 C           8.6392   -5.6407    4.8537 C.3     1  UNL1        0.0037
     17 C           7.8499   -7.9851    5.4576 C.3     1  UNL1        0.0910
     18 C           8.6665   -7.8010    6.7733 C.2     1  UNL1        0.2346
     19 O           9.3755   -6.8065    6.9440 O.2     1  UNL1       -0.2737
     20 N           8.6337   -8.8085    7.7312 N.am    1  UNL1       -0.2837
     21 C           9.5188   -8.6683    8.8527 C.ar    1  UNL1        0.0451
     22 C           9.5276   -7.4504    9.5581 C.ar    1  UNL1       -0.0399
     23 C          10.5549   -7.1332   10.4451 C.ar    1  UNL1       -0.0600
     24 C          11.5128   -8.0872   10.7524 C.ar    1  UNL1       -0.0611
     25 C          11.4259   -9.3575   10.1807 C.ar    1  UNL1       -0.0483
     26 C          10.4641   -9.6487    9.1847 C.ar    1  UNL1        0.0759
     27 C          10.5955  -10.9438    8.4348 C.3     1  UNL1        0.4191
     28 F          11.8051  -11.0706    7.8210 F       1  UNL1       -0.1658
     29 F          10.4545  -12.0342    9.2320 F       1  UNL1       -0.1658
     30 F           9.6698  -11.0931    7.4378 F       1  UNL1       -0.1658
     31 N           5.3761   -4.4247   -1.3052 N.2     1  UNL1       -0.1660
     32 H           0.6917    0.9621    0.2662 H       1  UNL1        0.0660
     33 H           0.6841   -0.7873    0.5490 H       1  UNL1        0.0660
     34 H           0.6108   -0.1236   -1.1244 H       1  UNL1        0.0660
     35 H           2.0133   -1.4726   -2.2822 H       1  UNL1        0.0656
     36 H           3.1979   -3.4858   -2.9949 H       1  UNL1        0.0687
     37 H           4.4007   -0.8790    1.2413 H       1  UNL1        0.0723
     38 H           6.2899   -2.8411    1.4675 H       1  UNL1        0.4537
     39 H           7.3066   -4.3328   -0.4672 H       1  UNL1        0.2074
     40 H           6.7480   -4.8155    2.8969 H       1  UNL1        0.0475
     41 H           8.1876   -5.4836    2.0521 H       1  UNL1        0.0475
     42 H           8.5814   -4.8369    4.1246 H       1  UNL1        0.0429
     43 H           9.6923   -5.9313    4.9149 H       1  UNL1        0.0429
     44 H           8.2519   -5.2349    5.7935 H       1  UNL1        0.0429
     45 H           8.2415   -8.8537    4.9112 H       1  UNL1        0.0560
     46 H           6.8054   -8.2027    5.7126 H       1  UNL1        0.0560
     47 H           8.4472   -9.7526    7.3983 H       1  UNL1        0.1549
     48 H           8.7591   -6.7036    9.3702 H       1  UNL1        0.0636
     49 H          10.6106   -6.1381   10.8799 H       1  UNL1        0.0618
     50 H          12.3262   -7.8406   11.4321 H       1  UNL1        0.0618
     51 H          12.1527  -10.1131   10.4803 H       1  UNL1        0.0624
     52 H           5.3505   -5.1368   -2.0405 H       1  UNL1        0.4537
@<TRIPOS>UNITY_ATOM_ATTR
9 1
charge 1
31 1
charge 1
@<TRIPOS>BOND
     1     1     2    1
     2     2     3    1
     3     3     4   ar
     4     4     5   ar
     5     5     6   ar
     6     6     7   ar
     7     7     8   ar
     8     3     8   ar
     9     7     9    2
    10     9    10    1
    11    11    12    1
    12    12    13    1
    13    13    14    2
    14    13    15   am
    15    15    16    1
    16    15    17    1
    17    17    18    1
    18    18    19    2
    19    18    20   am
    20    20    21    1
    21    21    22   ar
    22    22    23   ar
    23    23    24   ar
    24    24    25   ar
    25    25    26   ar
    26    21    26   ar
    27    26    27    1
    28    27    28    1
    29    27    29    1
    30    27    30    1
    31    10    31    1
    32     6    31    2
    33    10    11    1
    34     1    32    1
    35     1    33    1
    36     1    34    1
    37     4    35    1
    38     5    36    1
    39     8    37    1
    40     9    38    1
    41    10    39    1
    42    12    40    1
    43    12    41    1
    44    16    42    1
    45    16    43    1
    46    16    44    1
    47    17    45    1
    48    17    46    1
    49    20    47    1
    50    22    48    1
    51    23    49    1
    52    24    50    1
    53    25    51    1
    54    31    52    1
