REMARK  13 active torsions:
REMARK  status: ('A' for Active; 'I' for Inactive)
REMARK    1  A    between atoms: C_2  and  C_3 
REMARK    2  A    between atoms: C_3  and  C_4 
REMARK    3  A    between atoms: C_4  and  O_5 
REMARK    4  A    between atoms: O_5  and  C_6 
REMARK    5  A    between atoms: C_9  and  C_10 
REMARK    6  A    between atoms: C_10  and  O_12 
REMARK    7  A    between atoms: O_12  and  C_13 
REMARK    8  A    between atoms: C_16  and  C_17 
REMARK    9  A    between atoms: N_18  and  N_19 
REMARK   10  A    between atoms: N_19  and  C_20 
REMARK   11  A    between atoms: C_20  and  N_22 
REMARK   12  A    between atoms: N_22  and  C_23 
REMARK   13  A    between atoms: C_31  and  O_32 
ROOT
ATOM      1  C   UNL d   1      12.724   3.608  -0.301  0.00  0.00     0.112 A 
ATOM      2  C   UNL d   1      13.496   3.793  -1.467  0.00  0.00     0.041 A 
ATOM      3  C   UNL d   1      14.910   3.848  -1.413  0.00  0.00     0.016 A 
ATOM      4  C   UNL d   1      15.573   3.788  -0.184  0.00  0.00    -0.014 A 
ATOM      5  C   UNL d   1      14.796   3.569   0.970  0.00  0.00     0.052 A 
ATOM      6  C   UNL d   1      13.376   3.451   0.932  0.00  0.00     0.102 A 
ENDROOT
BRANCH   4   7
ATOM      7  C   UNL d   1      17.070   4.014  -0.118  0.00  0.00     0.150 C 
ATOM      8  N   UNL d   1      17.696   4.018   1.016  0.00  0.00    -0.184 NA
BRANCH   8   9
ATOM      9  N   UNL d   1      19.064   4.271   1.119  0.00  0.00    -0.253 N 
ATOM     10  H   UNL d   1      19.601   4.452   0.278  0.00  0.00     0.191 HD
BRANCH   9  11
ATOM     11  C   UNL d   1      19.620   4.316   2.419  0.00  0.00     0.192 C 
ATOM     12  S   UNL d   1      18.627   4.146   3.783  0.00  0.00    -0.039 SA
BRANCH  11  13
ATOM     13  N   UNL d   1      21.015   4.551   2.466  0.00  0.00    -0.332 N 
ATOM     14  H   UNL d   1      21.474   4.935   1.649  0.00  0.00     0.168 HD
BRANCH  13  15
ATOM     15  C   UNL d   1      21.815   4.511   3.663  0.00  0.00     0.035 A 
ATOM     16  C   UNL d   1      22.820   5.458   3.919  0.00  0.00     0.029 A 
ATOM     17  C   UNL d   1      23.595   5.378   5.096  0.00  0.00     0.004 A 
ATOM     18  C   UNL d   1      23.348   4.382   6.043  0.00  0.00     0.024 A 
ATOM     19  C   UNL d   1      22.374   3.430   5.779  0.00  0.00     0.036 A 
ATOM     20 CL   UNL d   1      22.088   2.151   6.895  0.00  0.00    -0.084 Cl
ATOM     21  C   UNL d   1      21.640   3.481   4.595  0.00  0.00     0.053 A 
ENDBRANCH  13  15
ENDBRANCH  11  13
ENDBRANCH   9  11
ENDBRANCH   8   9
ENDBRANCH   4   7
BRANCH   6  22
ATOM     22  O   UNL d   1      12.845   3.185   2.168  0.00  0.00    -0.353 OA
ATOM     23  C   UNL d   1      11.471   2.880   2.328  0.00  0.00     0.210 C 
ENDBRANCH   6  22
BRANCH   1  24
ATOM     24  O   UNL d   1      11.319   3.457  -0.487  0.00  0.00    -0.272 OA
BRANCH  24  25
ATOM     25  C   UNL d   1      10.462   4.373   0.121  0.00  0.00     0.298 C 
ATOM     26  O   UNL d   1      10.808   5.442   0.628  0.00  0.00    -0.259 OA
BRANCH  25  27
ATOM     27  C   UNL d   1       9.070   3.811   0.294  0.00  0.00     0.040 A 
ATOM     28  C   UNL d   1       8.260   4.244   1.364  0.00  0.00     0.020 A 
ATOM     29  C   UNL d   1       6.939   3.781   1.511  0.00  0.00     0.038 A 
ATOM     30  C   UNL d   1       6.388   2.916   0.565  0.00  0.00     0.068 A 
ATOM     31  C   UNL d   1       7.208   2.433  -0.457  0.00  0.00     0.038 A 
ATOM     32  C   UNL d   1       8.548   2.850  -0.574  0.00  0.00     0.020 A 
BRANCH  30  33
ATOM     33  O   UNL d   1       5.037   2.704   0.652  0.00  0.00    -0.351 OA
BRANCH  33  34
ATOM     34  C   UNL d   1       4.566   1.416   0.246  0.00  0.00     0.175 C 
BRANCH  34  35
ATOM     35  C   UNL d   1       3.036   1.415   0.233  0.00  0.00     0.026 C 
BRANCH  35  36
ATOM     36  C   UNL d   1       2.490   0.024  -0.090  0.00  0.00    -0.002 C 
ATOM     37  C   UNL d   1       0.971   0.012  -0.096  0.00  0.00     0.005 C 
ENDBRANCH  35  36
ENDBRANCH  34  35
ENDBRANCH  33  34
ENDBRANCH  30  33
ENDBRANCH  25  27
ENDBRANCH  24  25
ENDBRANCH   1  24
TORSDOF 13
