@<TRIPOS>MOLECULE
*****
 49 50 0 0 0
SMALL
GASTEIGER

@<TRIPOS>ATOM
      1 O           1.0399    0.0557    0.0910 O.2     1  UNL1       -0.2513
      2 C           2.2677    0.0608    0.0503 C.2     1  UNL1        0.3160
      3 N           2.9496    0.2006   -1.1336 N.am    1  UNL1       -0.2982
      4 C           2.2458    0.3384   -2.4014 C.3     1  UNL1        0.0147
      5 C           3.2032    0.4724   -3.5846 C.3     1  UNL1       -0.0191
      6 C           2.4627    0.6199   -4.9126 C.3     1  UNL1        0.0296
      7 N           3.4097    0.7339   -6.0370 N.ar    1  UNL1       -0.2957
      8 C           4.0148   -0.3270   -6.7053 C.ar    1  UNL1        0.0732
      9 C           4.8109    0.2154   -7.6745 C.ar    1  UNL1        0.1870
     10 N           4.6626    1.5783   -7.5752 N.ar    1  UNL1       -0.2011
     11 C           3.8115    1.8900   -6.5927 C.ar    1  UNL1        0.2463
     12 N           3.0235   -0.0743    1.1907 N.am    1  UNL1       -0.2180
     13 N           4.4289   -0.0621    1.2814 N.am    1  UNL1       -0.2292
     14 C           5.0301   -0.2678    2.5183 C.2     1  UNL1        0.2602
     15 O           4.4014   -0.4573    3.5597 O.2     1  UNL1       -0.2687
     16 C           6.5236   -0.2361    2.5410 C.ar    1  UNL1        0.0382
     17 C           7.2424   -1.1040    3.3760 C.ar    1  UNL1       -0.0493
     18 C           8.6370   -0.9905    3.4878 C.ar    1  UNL1       -0.0557
     19 C           9.3418   -0.0560    2.7166 C.ar    1  UNL1       -0.0219
     20 C          10.8544   -0.0440    2.7578 C.3     1  UNL1        0.0731
     21 O          11.3587    0.9307    1.8499 O.3     1  UNL1       -0.3663
     22 C          12.7897    0.9536    1.8108 C.3     1  UNL1        0.1430
     23 C          13.2849    2.0183    0.8406 C.3     1  UNL1        0.4128
     24 F          12.8507    1.7801   -0.4184 F       1  UNL1       -0.1682
     25 F          12.8655    3.2516    1.1994 F       1  UNL1       -0.1682
     26 F          14.6366    2.0389    0.8069 F       1  UNL1       -0.1682
     27 C           8.6107    0.8170    1.8962 C.ar    1  UNL1       -0.0557
     28 C           7.2169    0.7318    1.8086 C.ar    1  UNL1       -0.0493
     29 H           3.9513    0.1842   -1.1121 H       1  UNL1        0.1503
     30 H           1.5949    1.2185   -2.3359 H       1  UNL1        0.0463
     31 H           1.5989   -0.5378   -2.5315 H       1  UNL1        0.0463
     32 H           3.8597   -0.4052   -3.6297 H       1  UNL1        0.0297
     33 H           3.8599    1.3386   -3.4378 H       1  UNL1        0.0297
     34 H           1.8278    1.5136   -4.9117 H       1  UNL1        0.0494
     35 H           1.8169   -0.2453   -5.1032 H       1  UNL1        0.0494
     36 H           3.8020   -1.3368   -6.3977 H       1  UNL1        0.0871
     37 H           5.4669   -0.1890   -8.4258 H       1  UNL1        0.1392
     38 H           5.1273    2.2637   -8.1678 H       1  UNL1        0.4538
     39 H           3.5112    2.8900   -6.3010 H       1  UNL1        0.1600
     40 H           2.5181   -0.1705    2.0750 H       1  UNL1        0.1744
     41 H           4.9845   -0.0166    0.4428 H       1  UNL1        0.1732
     42 H           6.7273   -1.8739    3.9479 H       1  UNL1        0.0625
     43 H           9.1735   -1.6331    4.1858 H       1  UNL1        0.0621
     44 H          11.2181   -1.0312    2.4476 H       1  UNL1        0.0610
     45 H          11.2092    0.1786    3.7704 H       1  UNL1        0.0610
     46 H          13.1568   -0.0283    1.4916 H       1  UNL1        0.0650
     47 H          13.1740    1.1658    2.8142 H       1  UNL1        0.0650
     48 H           9.1259    1.5897    1.3270 H       1  UNL1        0.0621
     49 H           6.6902    1.4565    1.1963 H       1  UNL1        0.0625
@<TRIPOS>UNITY_ATOM_ATTR
10 1
charge 1
@<TRIPOS>BOND
     1     1     2    2
     2     2     3   am
     3     3     4    1
     4     4     5    1
     5     5     6    1
     6     6     7    1
     7     7     8   ar
     8     8     9   ar
     9     9    10   ar
    10    10    11   ar
    11     7    11   ar
    12     2    12   am
    13    12    13    1
    14    13    14   am
    15    14    15    2
    16    14    16    1
    17    16    17   ar
    18    17    18   ar
    19    18    19   ar
    20    19    20    1
    21    20    21    1
    22    21    22    1
    23    22    23    1
    24    23    24    1
    25    23    25    1
    26    23    26    1
    27    19    27   ar
    28    27    28   ar
    29    16    28   ar
    30     3    29    1
    31     4    30    1
    32     4    31    1
    33     5    32    1
    34     5    33    1
    35     6    34    1
    36     6    35    1
    37     8    36    1
    38     9    37    1
    39    10    38    1
    40    11    39    1
    41    12    40    1
    42    13    41    1
    43    17    42    1
    44    18    43    1
    45    20    44    1
    46    20    45    1
    47    22    46    1
    48    22    47    1
    49    27    48    1
    50    28    49    1
