@<TRIPOS>MOLECULE
*****
 43 44 0 0 0
SMALL
GASTEIGER

@<TRIPOS>ATOM
      1 C           0.8737   -0.2125    0.0550 C.3     1  UNL1       -0.0520
      2 C           2.3963   -0.2474    0.0663 C.3     1  UNL1        0.0198
      3 C           2.9705   -0.6241    1.3806 C.3     1  UNL1        0.0467
      4 C           2.4638    0.2200    2.5387 C.1     1  UNL1        0.0636
      5 N           2.0435    0.9202    3.4994 N.1     1  UNL1       -0.1965
      6 S           2.9934   -1.5286   -1.1206 S.3     1  UNL1       -0.1192
      7 C           4.7487   -1.1257   -1.2905 C.ar    1  UNL1        0.0294
      8 C           5.5696   -2.2735   -1.2537 C.ar    1  UNL1       -0.0465
      9 C           6.9515   -2.1784   -1.1141 C.ar    1  UNL1       -0.0606
     10 C           7.5432   -0.9245   -1.0589 C.ar    1  UNL1       -0.0599
     11 C           6.7528    0.2316   -1.1728 C.ar    1  UNL1       -0.0394
     12 C           5.3511    0.1555   -1.3365 C.ar    1  UNL1        0.0482
     13 N           4.6478    1.3915   -1.5116 N.am    1  UNL1       -0.2685
     14 C           3.4236    1.5223   -2.1479 C.2     1  UNL1        0.3042
     15 O           2.8903    0.6775   -2.8586 O.2     1  UNL1       -0.2525
     16 N           2.7303    2.6476   -1.7773 N.am    1  UNL1       -0.2949
     17 C           1.2753    2.6875   -1.9482 C.3     1  UNL1        0.0418
     18 C           0.6690    4.0584   -2.0182 C.ar    1  UNL1        0.0111
     19 C           1.4699    5.1942   -2.1666 C.ar    1  UNL1       -0.0536
     20 C           0.9208    6.4645   -2.0699 C.ar    1  UNL1       -0.0612
     21 C          -0.4557    6.6178   -1.9379 C.ar    1  UNL1       -0.0583
     22 C          -1.2869    5.4988   -1.8792 C.ar    1  UNL1       -0.0199
     23 C          -0.7217    4.2258   -1.9088 C.ar    1  UNL1        0.1215
     24 O          -1.5216    3.1186   -1.8250 O.3     1  UNL1       -0.5064
     25 H           0.4946    0.4972    0.8009 H       1  UNL1        0.0241
     26 H           0.4352   -1.1889    0.2721 H       1  UNL1        0.0241
     27 H           0.5015    0.1218   -0.9169 H       1  UNL1        0.0241
     28 H           2.7497    0.7607   -0.1042 H       1  UNL1        0.0423
     29 H           4.0661   -0.5796    1.4044 H       1  UNL1        0.0429
     30 H           2.6918   -1.6563    1.6393 H       1  UNL1        0.0429
     31 H           5.1246   -3.2660   -1.3108 H       1  UNL1        0.0629
     32 H           7.5503   -3.0829   -1.0262 H       1  UNL1        0.0618
     33 H           8.6241   -0.8521   -0.9487 H       1  UNL1        0.0618
     34 H           7.2674    1.1898   -1.1490 H       1  UNL1        0.0636
     35 H           5.1770    2.2428   -1.3910 H       1  UNL1        0.1564
     36 H           3.2228    3.4494   -1.4231 H       1  UNL1        0.1506
     37 H           0.8570    2.2140   -1.0537 H       1  UNL1        0.0513
     38 H           0.9799    2.0970   -2.8209 H       1  UNL1        0.0513
     39 H           2.5351    5.1077   -2.3486 H       1  UNL1        0.0622
     40 H           1.5791    7.3272   -2.0938 H       1  UNL1        0.0618
     41 H          -0.8777    7.6168   -1.8920 H       1  UNL1        0.0619
     42 H          -2.3594    5.6407   -1.7898 H       1  UNL1        0.0654
     43 H          -2.4546    3.3943   -1.8231 H       1  UNL1        0.2921
@<TRIPOS>BOND
     1     1     2    1
     2     2     3    1
     3     3     4    1
     4     4     5    3
     5     2     6    1
     6     6     7    1
     7     7     8   ar
     8     8     9   ar
     9     9    10   ar
    10    10    11   ar
    11    11    12   ar
    12     7    12   ar
    13    12    13    1
    14    13    14   am
    15    14    15    2
    16    14    16   am
    17    16    17    1
    18    17    18    1
    19    18    19   ar
    20    19    20   ar
    21    20    21   ar
    22    21    22   ar
    23    22    23   ar
    24    18    23   ar
    25    23    24    1
    26     1    25    1
    27     1    26    1
    28     1    27    1
    29     2    28    1
    30     3    29    1
    31     3    30    1
    32     8    31    1
    33     9    32    1
    34    10    33    1
    35    11    34    1
    36    13    35    1
    37    16    36    1
    38    17    37    1
    39    17    38    1
    40    19    39    1
    41    20    40    1
    42    21    41    1
    43    22    42    1
    44    24    43    1
