@<TRIPOS>MOLECULE
*****
 43 44 0 0 0
SMALL
GASTEIGER

@<TRIPOS>ATOM
      1 C           1.0846   -0.0621    0.0343 C.3     1  UNL1       -0.0442
      2 C           2.6259   -0.0473    0.0540 C.3     1  UNL1        0.0265
      3 C           3.0856    1.4105   -0.1085 C.3     1  UNL1       -0.0442
      4 C           3.0799   -0.6000    1.4165 C.3     1  UNL1       -0.0442
      5 N           3.1662   -0.8785   -1.0362 N.am    1  UNL1       -0.3066
      6 C           4.5260   -1.0766   -1.2060 C.2     1  UNL1        0.2445
      7 O           5.4032   -0.5663   -0.5107 O.2     1  UNL1       -0.2702
      8 C           4.9598   -1.9812   -2.2861 C.ar    1  UNL1        0.0385
      9 C           5.9902   -2.8867   -2.0468 C.ar    1  UNL1       -0.0495
     10 C           6.4957   -3.6469   -3.1004 C.ar    1  UNL1       -0.0593
     11 C           5.9422   -3.5312   -4.3861 C.ar    1  UNL1       -0.0404
     12 C           4.9216   -2.6019   -4.6372 C.ar    1  UNL1        0.0344
     13 N           4.4246   -2.4348   -5.9586 N.am    1  UNL1       -0.2815
     14 C           3.4991   -1.4674   -6.3265 C.2     1  UNL1        0.2484
     15 O           2.9676   -0.6353   -5.5899 O.2     1  UNL1       -0.2699
     16 C           3.0740   -1.3957   -7.7343 C.ar    1  UNL1        0.0405
     17 C           2.8240   -0.1216   -8.2724 C.ar    1  UNL1       -0.0494
     18 C           2.1848    0.0065   -9.5028 C.ar    1  UNL1       -0.0576
     19 C           1.8499   -1.1368  -10.2269 C.ar    1  UNL1       -0.0201
     20 C           2.1129   -2.3963   -9.6863 C.ar    1  UNL1        0.1176
     21 O           1.7515   -3.5385  -10.3380 O.3     1  UNL1       -0.5067
     22 C           2.7158   -2.5403   -8.4409 C.ar    1  UNL1       -0.0081
     23 C           4.4434   -1.8355   -3.5687 C.ar    1  UNL1       -0.0284
     24 H           0.6792    0.5530    0.8486 H       1  UNL1        0.0250
     25 H           0.6893   -1.0762    0.1609 H       1  UNL1        0.0250
     26 H           0.6875    0.3335   -0.9069 H       1  UNL1        0.0250
     27 H           2.6982    2.0404    0.6994 H       1  UNL1        0.0250
     28 H           2.7372    1.8255   -1.0614 H       1  UNL1        0.0250
     29 H           4.1752    1.5029   -0.0951 H       1  UNL1        0.0250
     30 H           2.6906    0.0054    2.2411 H       1  UNL1        0.0250
     31 H           4.1686   -0.6117    1.5171 H       1  UNL1        0.0250
     32 H           2.7332   -1.6309    1.5537 H       1  UNL1        0.0250
     33 H           2.5166   -1.3501   -1.6565 H       1  UNL1        0.1495
     34 H           6.4005   -2.9805   -1.0437 H       1  UNL1        0.0625
     35 H           7.3366   -4.3123   -2.9172 H       1  UNL1        0.0618
     36 H           6.3411   -4.1661   -5.1737 H       1  UNL1        0.0636
     37 H           4.8319   -3.0154   -6.6836 H       1  UNL1        0.1551
     38 H           3.0894    0.7711   -7.7060 H       1  UNL1        0.0625
     39 H           1.9235    0.9941   -9.8759 H       1  UNL1        0.0619
     40 H           1.3754   -1.0237  -11.1967 H       1  UNL1        0.0654
     41 H           1.2815   -3.2994  -11.1542 H       1  UNL1        0.2921
     42 H           2.8335   -3.5290   -8.0113 H       1  UNL1        0.0661
     43 H           3.6944   -1.0687   -3.7009 H       1  UNL1        0.0644
@<TRIPOS>BOND
     1     1     2    1
     2     2     3    1
     3     2     4    1
     4     2     5    1
     5     5     6   am
     6     6     7    2
     7     6     8    1
     8     8     9   ar
     9     9    10   ar
    10    10    11   ar
    11    11    12   ar
    12    12    13    1
    13    13    14   am
    14    14    15    2
    15    14    16    1
    16    16    17   ar
    17    17    18   ar
    18    18    19   ar
    19    19    20   ar
    20    20    21    1
    21    20    22   ar
    22    16    22   ar
    23    12    23   ar
    24     8    23   ar
    25     1    24    1
    26     1    25    1
    27     1    26    1
    28     3    27    1
    29     3    28    1
    30     3    29    1
    31     4    30    1
    32     4    31    1
    33     4    32    1
    34     5    33    1
    35     9    34    1
    36    10    35    1
    37    11    36    1
    38    13    37    1
    39    17    38    1
    40    18    39    1
    41    19    40    1
    42    21    41    1
    43    22    42    1
    44    23    43    1
