REMARK  6 active torsions:
REMARK  status: ('A' for Active; 'I' for Inactive)
REMARK    1  A    between atoms: C_2  and  C_3 
REMARK    2  A    between atoms: C_3  and  N_4 
REMARK       I    between atoms: N_4  and  C_5 
REMARK       I    between atoms: C_5  and  N_7 
REMARK    3  A    between atoms: N_7  and  N_8 
REMARK       I    between atoms: N_8  and  C_9 
REMARK    4  A    between atoms: C_9  and  C_11 
REMARK    5  A    between atoms: C_13  and  C_14 
REMARK    6  A    between atoms: C_21  and  C_22 
ROOT
ATOM      1  C   UNL d   1       9.426  -4.076   3.327  0.00  0.00     0.052 A 
ATOM      2  C   UNL d   1       9.029  -5.431   3.283  0.00  0.00     0.046 A 
ATOM      3  C   UNL d   1       9.643  -6.378   4.105  0.00  0.00     0.042 A 
ATOM      4  N   UNL d   1      10.641  -6.027   4.959  0.00  0.00    -0.226 NA
ATOM      5  C   UNL d   1      11.028  -4.743   4.946  0.00  0.00     0.208 A 
ATOM      6  O   UNL d   1      12.026  -4.248   5.733  0.00  0.00    -0.192 OA
ATOM      7  N   UNL d   1      12.192  -2.893   5.484  0.00  0.00    -0.125 NA
ATOM      8  C   UNL d   1      11.265  -2.584   4.563  0.00  0.00     0.110 A 
ATOM      9  C   UNL d   1      10.499  -3.727   4.176  0.00  0.00     0.067 A 
ENDROOT
BRANCH   1  10
ATOM     10  C   UNL d   1       8.734  -3.081   2.464  0.00  0.00     0.271 C 
ATOM     11  N   UNL d   1       7.349  -3.071   2.525  0.00  0.00    -0.262 N 
ATOM     12  H   UNL d   1       6.802  -3.697   3.116  0.00  0.00     0.190 HD
ATOM     13  O   UNL d   1       9.385  -2.325   1.739  0.00  0.00    -0.266 OA
BRANCH  11  14
ATOM     14  N   UNL d   1       6.593  -2.128   1.767  0.00  0.00    -0.249 N 
ATOM     15  C   UNL d   1       5.209  -2.184   1.822  0.00  0.00     0.334 C 
ATOM     16  N   UNL d   1       4.555  -1.240   1.055  0.00  0.00    -0.342 N 
ATOM     17  O   UNL d   1       4.621  -3.019   2.507  0.00  0.00    -0.246 OA
ATOM     18  H   UNL d   1       5.088  -0.582   0.507  0.00  0.00     0.164 HD
ATOM     19  H   UNL d   1       7.124  -1.455   1.222  0.00  0.00     0.192 HD
BRANCH  16  20
ATOM     20  C   UNL d   1       3.091  -1.183   1.006  0.00  0.00     0.124 C 
BRANCH  20  21
ATOM     21  C   UNL d   1       2.533  -0.077   0.099  0.00  0.00     0.015 C 
ATOM     22  C   UNL d   1       1.004  -0.063   0.087  0.00  0.00     0.006 C 
ENDBRANCH  20  21
ENDBRANCH  16  20
ENDBRANCH  11  14
ENDBRANCH   1  10
BRANCH   3  23
ATOM     23  C   UNL d   1       9.281  -7.852   4.196  0.00  0.00     0.038 A 
ATOM     24  C   UNL d   1       7.882  -8.415   4.125  0.00  0.00     0.011 A 
ATOM     25  C   UNL d   1       8.910  -8.815   3.102  0.00  0.00     0.011 A 
ENDBRANCH   3  23
BRANCH   8  26
ATOM     26  C   UNL d   1      11.068  -1.228   4.086  0.00  0.00    -0.004 C 
ATOM     27  C   UNL d   1      12.036  -0.575   3.318  0.00  0.00     0.014 C 
ATOM     28  C   UNL d   1      11.667   0.555   2.585  0.00  0.00     0.001 C 
ATOM     29  C   UNL d   1      10.425   1.156   2.800  0.00  0.00     0.000 C 
ATOM     30  C   UNL d   1       9.504   0.569   3.663  0.00  0.00     0.001 C 
ATOM     31  C   UNL d   1       9.803  -0.652   4.254  0.00  0.00     0.014 C 
ENDBRANCH   8  26
TORSDOF 6
