@<TRIPOS>MOLECULE
*****
 69 71 0 0 0
SMALL
GASTEIGER

@<TRIPOS>ATOM
      1 O           1.0343   -0.0842    0.2586 O.2     1  UNL1       -0.2754
      2 C           2.2435    0.0410    0.0717 C.2     1  UNL1        0.2185
      3 C           2.8178    0.8189   -1.1003 C.3     1  UNL1        0.0248
      4 C           1.8695    1.4655   -2.0762 C.3     1  UNL1       -0.0347
      5 C           2.6425    2.1916   -3.1979 C.3     1  UNL1        0.0454
      6 C           1.6550    2.8142   -4.1508 C.2     1  UNL1        0.3071
      7 O           0.4301    2.7273   -4.0210 O.2     1  UNL1       -0.2509
      8 O           2.2639    3.4818   -5.1684 O.3     1  UNL1       -0.4646
      9 C           1.3219    4.0767   -6.0795 C.3     1  UNL1        0.0928
     10 C           2.0597    4.7981   -7.1996 C.3     1  UNL1       -0.0146
     11 C           1.0754    5.4209   -8.1959 C.3     1  UNL1       -0.0246
     12 C           1.7801    6.1854   -9.2893 C.ar    1  UNL1       -0.0472
     13 C           2.6852    5.5564  -10.1558 C.ar    1  UNL1       -0.0586
     14 C           3.4014    6.3051  -11.0914 C.ar    1  UNL1       -0.0615
     15 C           3.1534    7.6692  -11.2314 C.ar    1  UNL1       -0.0617
     16 C           2.2264    8.2961  -10.4024 C.ar    1  UNL1       -0.0615
     17 C           1.5507    7.5600   -9.4303 C.ar    1  UNL1       -0.0586
     18 N           3.1673   -0.5445    0.9611 N.am    1  UNL1       -0.2676
     19 C           4.5786   -0.6560    0.9149 C.2     1  UNL1        0.1408
     20 S           5.5370   -0.1554   -0.3930 S.2     1  UNL1       -0.0182
     21 N           5.1456   -1.2554    2.0609 N.am    1  UNL1       -0.2966
     22 C           6.5664   -1.2800    2.2622 C.ar    1  UNL1        0.0328
     23 C           7.2734   -2.4448    2.5574 C.ar    1  UNL1       -0.0370
     24 C           8.6856   -2.3956    2.6574 C.ar    1  UNL1       -0.0182
     25 C           9.4005   -1.2150    2.3933 C.ar    1  UNL1        0.1208
     26 O          10.7719   -1.2809    2.4263 O.3     1  UNL1       -0.4886
     27 C          11.4760   -0.0771    2.0649 C.3     1  UNL1        0.1235
     28 C          12.9880   -0.3132    2.1171 C.3     1  UNL1        0.1235
     29 O          13.6676    0.9262    1.8763 O.3     1  UNL1       -0.4886
     30 C          15.0335    0.8550    1.7830 C.ar    1  UNL1        0.1207
     31 C          15.7460    1.9532    2.2751 C.ar    1  UNL1       -0.0199
     32 C          17.1320    2.0357    2.1052 C.ar    1  UNL1       -0.0583
     33 C          17.8217    0.9920    1.4929 C.ar    1  UNL1       -0.0615
     34 C          17.1186   -0.1097    1.0103 C.ar    1  UNL1       -0.0583
     35 C          15.7271   -0.1722    1.1424 C.ar    1  UNL1       -0.0199
     36 C           8.6837   -0.0630    2.1138 C.ar    1  UNL1       -0.0182
     37 C           7.2925   -0.0926    2.1030 C.ar    1  UNL1       -0.0370
     38 H           3.3786    0.1028   -1.7047 H       1  UNL1        0.0359
     39 H           3.4468    1.6129   -0.6815 H       1  UNL1        0.0359
     40 H           1.2258    2.1720   -1.5443 H       1  UNL1        0.0275
     41 H           1.2286    0.6920   -2.5137 H       1  UNL1        0.0275
     42 H           3.2797    1.4849   -3.7461 H       1  UNL1        0.0378
     43 H           3.2841    2.9745   -2.7736 H       1  UNL1        0.0378
     44 H           0.6933    4.7916   -5.5340 H       1  UNL1        0.0697
     45 H           0.6886    3.2907   -6.5092 H       1  UNL1        0.0697
     46 H           2.7304    4.0920   -7.7031 H       1  UNL1        0.0301
     47 H           2.7090    5.5730   -6.7721 H       1  UNL1        0.0301
     48 H           0.4059    6.1009   -7.6523 H       1  UNL1        0.0314
     49 H           0.4337    4.6552   -8.6486 H       1  UNL1        0.0314
     50 H           2.8519    4.4829  -10.0999 H       1  UNL1        0.0620
     51 H           4.1598    5.8266  -11.7056 H       1  UNL1        0.0618
     52 H           3.6804    8.2432  -11.9882 H       1  UNL1        0.0618
     53 H           2.0390    9.3618  -10.4992 H       1  UNL1        0.0618
     54 H           0.8460    8.0683   -8.7765 H       1  UNL1        0.0620
     55 H           2.6746   -1.0068    1.7172 H       1  UNL1        0.1565
     56 H           4.6002   -1.9200    2.5991 H       1  UNL1        0.1538
     57 H           6.7763   -3.4091    2.6301 H       1  UNL1        0.0637
     58 H           9.2343   -3.2966    2.9250 H       1  UNL1        0.0655
     59 H          11.2229    0.7377    2.7549 H       1  UNL1        0.0731
     60 H          11.2068    0.2332    1.0450 H       1  UNL1        0.0731
     61 H          13.2335   -1.0753    1.3712 H       1  UNL1        0.0731
     62 H          13.2668   -0.6877    3.1077 H       1  UNL1        0.0731
     63 H          15.2238    2.7530    2.7938 H       1  UNL1        0.0654
     64 H          17.6718    2.9192    2.4370 H       1  UNL1        0.0619
     65 H          18.9023    1.0401    1.3838 H       1  UNL1        0.0618
     66 H          17.6500   -0.9120    0.5048 H       1  UNL1        0.0619
     67 H          15.2125   -1.0194    0.7048 H       1  UNL1        0.0654
     68 H           9.1562    0.8858    1.8891 H       1  UNL1        0.0655
     69 H           6.7795    0.8432    1.8982 H       1  UNL1        0.0637
@<TRIPOS>BOND
     1     1     2    2
     2     2     3    1
     3     3     4    1
     4     4     5    1
     5     5     6    1
     6     6     7    2
     7     6     8    1
     8     8     9    1
     9     9    10    1
    10    10    11    1
    11    11    12    1
    12    12    13   ar
    13    13    14   ar
    14    14    15   ar
    15    15    16   ar
    16    16    17   ar
    17    12    17   ar
    18     2    18   am
    19    18    19    1
    20    19    20    2
    21    19    21    1
    22    21    22    1
    23    22    23   ar
    24    23    24   ar
    25    24    25   ar
    26    25    26    1
    27    26    27    1
    28    27    28    1
    29    28    29    1
    30    29    30    1
    31    30    31   ar
    32    31    32   ar
    33    32    33   ar
    34    33    34   ar
    35    34    35   ar
    36    30    35   ar
    37    25    36   ar
    38    36    37   ar
    39    22    37   ar
    40     3    38    1
    41     3    39    1
    42     4    40    1
    43     4    41    1
    44     5    42    1
    45     5    43    1
    46     9    44    1
    47     9    45    1
    48    10    46    1
    49    10    47    1
    50    11    48    1
    51    11    49    1
    52    13    50    1
    53    14    51    1
    54    15    52    1
    55    16    53    1
    56    17    54    1
    57    18    55    1
    58    21    56    1
    59    23    57    1
    60    24    58    1
    61    27    59    1
    62    27    60    1
    63    28    61    1
    64    28    62    1
    65    31    63    1
    66    32    64    1
    67    33    65    1
    68    34    66    1
    69    35    67    1
    70    36    68    1
    71    37    69    1
