REMARK  9 active torsions:
REMARK  status: ('A' for Active; 'I' for Inactive)
REMARK    1  A    between atoms: O_2  and  C_3 
REMARK    2  A    between atoms: C_7  and  N_8 
REMARK    3  A    between atoms: C_12  and  S_13 
REMARK    4  A    between atoms: S_13  and  C_14 
REMARK    5  A    between atoms: C_14  and  C_15 
REMARK       I    between atoms: C_15  and  N_17 
REMARK    6  A    between atoms: N_17  and  C_18 
REMARK    7  A    between atoms: C_18  and  C_19 
REMARK    8  A    between atoms: C_19  and  C_20 
REMARK    9  A    between atoms: C_25  and  O_26 
ROOT
ATOM      1  C   UNL d   1       0.215   2.325  -3.337  0.00  0.00     0.180 C 
ENDROOT
BRANCH   1   2
ATOM      2  S   UNL d   1       0.231   4.216  -2.987  0.00  0.00    -0.116 SA
BRANCH   2   3
ATOM      3  C   UNL d   1       2.039   4.786  -2.961  0.00  0.00     0.267 C 
ATOM      4  N   UNL d   1       2.069   6.283  -2.787  0.00  0.00    -0.105 NA
ATOM      5  N   UNL d   1       2.831   6.504  -1.513  0.00  0.00     0.072 N 
ATOM      6  H   UNL d   1       2.547   6.695  -3.592  0.00  0.00     0.158 HD
ATOM      7  N   UNL d   1       2.915   5.261  -0.838  0.00  0.00    -0.042 NA
ATOM      8  H   UNL d   1       3.783   6.879  -1.694  0.00  0.00     0.325 HD
ATOM      9  H   UNL d   1       2.337   7.199  -0.918  0.00  0.00     0.325 HD
ATOM     10  N   UNL d   1       2.745   4.290  -1.802  0.00  0.00    -0.259 N 
ATOM     11  H   UNL d   1       3.730   5.107  -0.227  0.00  0.00     0.181 HD
BRANCH  10  12
ATOM     12  C   UNL d   1       3.303   3.040  -1.685  0.00  0.00     0.052 A 
ATOM     13  C   UNL d   1       4.380   2.617  -2.474  0.00  0.00     0.031 A 
ATOM     14  C   UNL d   1       4.820   1.297  -2.399  0.00  0.00     0.005 A 
ATOM     15  C   UNL d   1       4.175   0.404  -1.544  0.00  0.00     0.037 A 
ATOM     16  C   UNL d   1       3.096   0.818  -0.765  0.00  0.00     0.070 A 
ATOM     17  C   UNL d   1       2.714   2.150  -0.782  0.00  0.00     0.067 A 
BRANCH  16  18
ATOM     18  O   UNL d   1       2.501  -0.138   0.004  0.00  0.00    -0.356 OA
ATOM     19  C   UNL d   1       1.075  -0.088   0.048  0.00  0.00     0.210 C 
ENDBRANCH  16  18
ENDBRANCH  10  12
ENDBRANCH   2   3
ENDBRANCH   1   2
BRANCH   1  20
ATOM     20  C   UNL d   1      -1.299   1.676  -3.294  0.00  0.00     0.227 C 
ATOM     21  O   UNL d   1      -2.276   2.395  -3.196  0.00  0.00    -0.273 OA
ATOM     22  N   UNL d   1      -1.421   0.230  -3.345  0.00  0.00    -0.360 N 
ATOM     23  H   UNL d   1      -0.614  -0.255  -3.709  0.00  0.00     0.162 HD
BRANCH  22  24
ATOM     24  C   UNL d   1      -2.791  -0.641  -3.315  0.00  0.00     0.127 C 
BRANCH  24  25
ATOM     25  C   UNL d   1      -2.689  -2.396  -3.312  0.00  0.00     0.056 C 
BRANCH  25  26
ATOM     26  C   UNL d   1      -3.942  -3.437  -3.902  0.00  0.00    -0.047 C 
ATOM     27  C   UNL d   1      -4.375  -3.137  -5.231  0.00  0.00     0.112 C 
ATOM     28  N   UNL d   1      -5.740  -3.264  -4.931  0.00  0.00    -0.282 NA
ATOM     29  C   UNL d   1      -5.826  -4.609  -4.627  0.00  0.00     0.022 C 
ATOM     30  H   UNL d   1      -6.250  -2.618  -4.344  0.00  0.00     0.128 HD
ATOM     31  C   UNL d   1      -6.851  -5.460  -5.067  0.00  0.00     0.061 C 
ATOM     32  C   UNL d   1      -4.693  -4.898  -3.846  0.00  0.00    -0.011 C 
ATOM     33  C   UNL d   1      -6.918  -6.817  -4.847  0.00  0.00     0.070 C 
ATOM     34  C   UNL d   1      -5.928  -7.265  -3.990  0.00  0.00     0.037 C 
ATOM     35  C   UNL d   1      -4.843  -6.320  -3.421  0.00  0.00     0.016 C 
BRANCH  33  36
ATOM     36  O   UNL d   1      -7.913  -7.393  -5.580  0.00  0.00    -0.356 OA
ATOM     37  C   UNL d   1      -8.408  -8.722  -5.473  0.00  0.00     0.210 C 
ENDBRANCH  33  36
ENDBRANCH  25  26
ENDBRANCH  24  25
ENDBRANCH  22  24
ENDBRANCH   1  20
TORSDOF 9
