@<TRIPOS>MOLECULE
*****
 46 48 0 0 0
SMALL
GASTEIGER

@<TRIPOS>ATOM
      1 C           1.1052   -0.0606   -0.0047 C.3     1  UNL1       -0.0570
      2 C           2.6313   -0.1243   -0.0647 C.3     1  UNL1        0.0215
      3 C           3.0702   -1.2631   -0.9810 C.2     1  UNL1        0.2169
      4 O           2.2419   -1.9778   -1.5434 O.2     1  UNL1       -0.2755
      5 N           4.4441   -1.4494   -1.0865 N.am    1  UNL1       -0.2855
      6 C           4.9931   -2.5079   -1.8572 C.ar    1  UNL1        0.0335
      7 C           6.0487   -3.2723   -1.3555 C.ar    1  UNL1       -0.0386
      8 C           6.5840   -4.3284   -2.1191 C.ar    1  UNL1       -0.0333
      9 C           6.0500   -4.6429   -3.3822 C.ar    1  UNL1        0.1086
     10 S           6.6481   -6.1266   -4.1981 S.O2    1  UNL1        0.0723
     11 O           8.0386   -5.8726   -4.5293 O.2     1  UNL1       -0.1500
     12 O           6.2720   -7.2187   -3.3301 O.2     1  UNL1       -0.1500
     13 N           5.8016   -6.2894   -5.6475 N.pl3   1  UNL1       -0.2163
     14 C           6.0784   -7.3716   -6.5404 C.ar    1  UNL1        0.0483
     15 C           6.1846   -7.1248   -7.9136 C.ar    1  UNL1       -0.0359
     16 C           6.3797   -8.1851   -8.8201 C.ar    1  UNL1       -0.0174
     17 C           6.5314   -9.4965   -8.3557 C.ar    1  UNL1        0.1320
     18 O           6.8727  -10.4551   -9.2937 O.3     1  UNL1       -0.4236
     19 C           7.0707  -11.7517   -8.8339 C.ar    1  UNL1        0.3233
     20 N           8.3216  -12.2437   -8.9038 N.ar    1  UNL1       -0.2030
     21 C           8.5026  -13.4623   -8.3531 C.ar    1  UNL1        0.0344
     22 C           7.4981  -14.1835   -7.7486 C.ar    1  UNL1       -0.0252
     23 C           6.2549  -13.5986   -7.7688 C.ar    1  UNL1        0.0344
     24 N           6.0065  -12.3983   -8.3211 N.ar    1  UNL1       -0.2030
     25 C           6.3830   -9.7340   -6.9874 C.ar    1  UNL1       -0.0174
     26 C           6.1397   -8.6867   -6.0932 C.ar    1  UNL1       -0.0359
     27 C           5.0268   -3.8541   -3.9008 C.ar    1  UNL1       -0.0333
     28 C           4.5026   -2.7999   -3.1357 C.ar    1  UNL1       -0.0386
     29 H           0.7579    0.7568    0.6337 H       1  UNL1        0.0234
     30 H           0.6926   -0.9971    0.3892 H       1  UNL1        0.0234
     31 H           0.6832    0.0866   -1.0057 H       1  UNL1        0.0234
     32 H           3.0259   -0.2820    0.9453 H       1  UNL1        0.0356
     33 H           3.0197    0.8259   -0.4467 H       1  UNL1        0.0356
     34 H           5.0457   -0.9990   -0.4077 H       1  UNL1        0.1548
     35 H           6.4089   -3.1218   -0.3402 H       1  UNL1        0.0637
     36 H           7.4036   -4.9201   -1.7117 H       1  UNL1        0.0638
     37 H           5.1067   -5.6125   -5.9322 H       1  UNL1        0.1737
     38 H           6.1518   -6.1073   -8.2944 H       1  UNL1        0.0638
     39 H           6.4293   -7.9774   -9.8875 H       1  UNL1        0.0655
     40 H           9.5153  -13.8554   -8.4004 H       1  UNL1        0.0832
     41 H           7.6709  -15.1470   -7.2889 H       1  UNL1        0.0648
     42 H           5.3959  -14.0824   -7.3142 H       1  UNL1        0.0832
     43 H           6.4477  -10.7331   -6.5704 H       1  UNL1        0.0655
     44 H           6.0012   -8.9368   -5.0464 H       1  UNL1        0.0638
     45 H           4.5990   -4.0205   -4.8793 H       1  UNL1        0.0638
     46 H           3.7017   -2.1973   -3.5594 H       1  UNL1        0.0637
@<TRIPOS>BOND
     1     1     2    1
     2     2     3    1
     3     3     4    2
     4     3     5   am
     5     5     6    1
     6     6     7   ar
     7     7     8   ar
     8     8     9   ar
     9     9    10    1
    10    10    11    2
    11    10    12    2
    12    10    13    1
    13    13    14    1
    14    14    15   ar
    15    15    16   ar
    16    16    17   ar
    17    17    18    1
    18    18    19    1
    19    19    20   ar
    20    20    21   ar
    21    21    22   ar
    22    22    23   ar
    23    23    24   ar
    24    19    24   ar
    25    17    25   ar
    26    25    26   ar
    27    14    26   ar
    28     9    27   ar
    29    27    28   ar
    30     6    28   ar
    31     1    29    1
    32     1    30    1
    33     1    31    1
    34     2    32    1
    35     2    33    1
    36     5    34    1
    37     7    35    1
    38     8    36    1
    39    13    37    1
    40    15    38    1
    41    16    39    1
    42    21    40    1
    43    22    41    1
    44    23    42    1
    45    25    43    1
    46    26    44    1
    47    27    45    1
    48    28    46    1
