@<TRIPOS>MOLECULE
*****
 52 55 0 0 0
SMALL
GASTEIGER

@<TRIPOS>ATOM
      1 O           4.7002   -1.0651   -1.4435 O.2     1  UNL1       -0.2754
      2 C           4.5026    0.0995   -1.0932 C.2     1  UNL1        0.2189
      3 N           5.5348    0.9362   -0.7398 N.am    1  UNL1       -0.3109
      4 C           6.9196    0.5445   -0.7886 C.3     1  UNL1        0.0373
      5 C           7.8230    1.7068   -0.4193 C.ar    1  UNL1       -0.0172
      6 C           7.7314    2.3246    0.8328 C.ar    1  UNL1        0.0068
      7 C           8.5930    3.3704    1.1407 C.ar    1  UNL1        0.1714
      8 N           9.5089    3.7713    0.2486 N.ar    1  UNL1       -0.1981
      9 C           9.6490    3.2354   -0.9736 C.ar    1  UNL1        0.2721
     10 N          10.5364    3.8513   -1.8268 N.pl3   1  UNL1       -0.2780
     11 C          11.9853    3.6536   -1.6719 C.3     1  UNL1        0.0173
     12 C          12.6090    4.9578   -1.1659 C.3     1  UNL1       -0.0371
     13 C          12.7028    6.0729   -2.2114 C.3     1  UNL1       -0.0516
     14 C          11.3907    6.3963   -2.9285 C.3     1  UNL1       -0.0516
     15 C          10.9177    5.2688   -3.8484 C.3     1  UNL1       -0.0371
     16 C          10.0350    4.2301   -3.1520 C.3     1  UNL1        0.0173
     17 C           8.7809    2.1899   -1.3265 C.ar    1  UNL1        0.0310
     18 C           3.1000    0.6955   -1.0147 C.3     1  UNL1        0.0640
     19 C           2.9894    2.2185   -0.7975 C.3     1  UNL1       -0.0131
     20 C           2.1681    2.6647   -1.9982 C.3     1  UNL1        0.0599
     21 C           3.0306    2.5844   -3.2595 C.3     1  UNL1       -0.0242
     22 C           3.0760    1.0782   -3.5210 C.3     1  UNL1       -0.0235
     23 C           2.3047    0.5241   -2.3221 C.3     1  UNL1        0.0703
     24 O           1.2827    1.5476   -2.1669 O.3     1  UNL1       -0.3726
     25 H           5.3362    1.8479   -0.3726 H       1  UNL1        0.1490
     26 H           7.1327    0.1856   -1.8014 H       1  UNL1        0.0512
     27 H           7.0730   -0.2871   -0.0934 H       1  UNL1        0.0512
     28 H           6.9946    1.9987    1.5671 H       1  UNL1        0.0680
     29 H           8.5594    3.9052    2.0849 H       1  UNL1        0.1376
     30 H          10.1081    4.5649    0.4568 H       1  UNL1        0.4542
     31 H          12.4525    3.3571   -2.6213 H       1  UNL1        0.0465
     32 H          12.2056    2.8445   -0.9646 H       1  UNL1        0.0465
     33 H          13.6218    4.7542   -0.7986 H       1  UNL1        0.0280
     34 H          12.0341    5.3314   -0.3111 H       1  UNL1        0.0280
     35 H          13.4743    5.8227   -2.9510 H       1  UNL1        0.0266
     36 H          13.0515    6.9827   -1.7059 H       1  UNL1        0.0266
     37 H          11.5576    7.2902   -3.5413 H       1  UNL1        0.0266
     38 H          10.6149    6.6556   -2.1985 H       1  UNL1        0.0266
     39 H          11.7789    4.7812   -4.3223 H       1  UNL1        0.0280
     40 H          10.3316    5.7028   -4.6672 H       1  UNL1        0.0280
     41 H           9.9259    3.3529   -3.8008 H       1  UNL1        0.0465
     42 H           9.0392    4.6758   -3.0291 H       1  UNL1        0.0465
     43 H           8.8540    1.7421   -2.3154 H       1  UNL1        0.0701
     44 H           2.5676    0.1825   -0.2017 H       1  UNL1        0.0420
     45 H           3.9107    2.7974   -0.7875 H       1  UNL1        0.0298
     46 H           2.4752    2.4111    0.1496 H       1  UNL1        0.0298
     47 H           1.6577    3.6189   -1.8505 H       1  UNL1        0.0596
     48 H           4.0287    3.0126   -3.1189 H       1  UNL1        0.0291
     49 H           2.5506    3.0998   -4.0970 H       1  UNL1        0.0291
     50 H           4.0948    0.6903   -3.5958 H       1  UNL1        0.0291
     51 H           2.5594    0.8507   -4.4597 H       1  UNL1        0.0291
     52 H           1.8574   -0.4605   -2.4814 H       1  UNL1        0.0603
@<TRIPOS>UNITY_ATOM_ATTR
8 1
charge 1
@<TRIPOS>BOND
     1     1     2    2
     2     2     3   am
     3     3     4    1
     4     4     5    1
     5     5     6   ar
     6     6     7   ar
     7     7     8   ar
     8     8     9   ar
     9     9    10    1
    10    10    11    1
    11    11    12    1
    12    12    13    1
    13    13    14    1
    14    14    15    1
    15    15    16    1
    16    10    16    1
    17     9    17   ar
    18     5    17   ar
    19    18    19    1
    20    19    20    1
    21    20    21    1
    22    21    22    1
    23    22    23    1
    24    18    23    1
    25    23    24    1
    26    20    24    1
    27    18     2    1
    28     3    25    1
    29     4    26    1
    30     4    27    1
    31     6    28    1
    32     7    29    1
    33     8    30    1
    34    11    31    1
    35    11    32    1
    36    12    33    1
    37    12    34    1
    38    13    35    1
    39    13    36    1
    40    14    37    1
    41    14    38    1
    42    15    39    1
    43    15    40    1
    44    16    41    1
    45    16    42    1
    46    17    43    1
    47    18    44    1
    48    19    45    1
    49    19    46    1
    50    20    47    1
    51    21    48    1
    52    21    49    1
    53    22    50    1
    54    22    51    1
    55    23    52    1
