@<TRIPOS>MOLECULE
*****
 42 43 0 0 0
SMALL
GASTEIGER

@<TRIPOS>ATOM
      1 C           1.0088    0.1113   -0.0479 C.3     1  UNL1       -0.0613
      2 C           2.5347    0.0796   -0.0316 C.3     1  UNL1       -0.0305
      3 C           2.9952   -0.8144    1.0961 C.ar    1  UNL1       -0.0476
      4 C           2.9264   -2.2057    0.9742 C.ar    1  UNL1       -0.0579
      5 C           3.0889   -3.0241    2.1038 C.ar    1  UNL1       -0.0493
      6 C           3.4306   -2.4800    3.3573 C.ar    1  UNL1        0.0382
      7 C           3.7028   -3.4114    4.5174 C.2     1  UNL1        0.2601
      8 O           3.5914   -4.6325    4.3682 O.2     1  UNL1       -0.2687
      9 N           4.1073   -2.8593    5.7285 N.am    1  UNL1       -0.2301
     10 N           4.4329   -3.6984    6.8345 N.am    1  UNL1       -0.2306
     11 C           4.8158   -3.1079    8.0287 C.2     1  UNL1        0.2530
     12 O           4.9191   -1.8867    8.1608 O.2     1  UNL1       -0.2693
     13 C           5.1101   -4.0557    9.1549 C.2     1  UNL1        0.0022
     14 C           5.4805   -3.6118   10.3754 C.2     1  UNL1       -0.0496
     15 C           5.8964   -4.4651   11.5159 C.ar    1  UNL1       -0.0245
     16 C           5.6340   -4.0801   12.8446 C.ar    1  UNL1       -0.0482
     17 C           6.1995   -4.7772   13.9287 C.ar    1  UNL1        0.0161
     18 C           6.9744   -5.9176   13.6890 C.ar    1  UNL1        0.2732
     19 N           7.4798   -6.7203   14.8135 N.pl3   1  UNL1        0.0796
     20 O           7.2155   -6.3376   15.9621 O.2     1  UNL1        0.0414
     21 O           8.1222   -7.7466   14.5459 O.co2   1  UNL1       -0.5760
     22 C           7.2318   -6.3249   12.3766 C.ar    1  UNL1        0.0161
     23 C           6.6983   -5.5966   11.3044 C.ar    1  UNL1       -0.0482
     24 C           3.5412   -1.0867    3.4562 C.ar    1  UNL1       -0.0493
     25 C           3.3288   -0.2653    2.3381 C.ar    1  UNL1       -0.0579
     26 H           0.6376    0.7643   -0.8422 H       1  UNL1        0.0233
     27 H           0.6143    0.4770    0.9076 H       1  UNL1        0.0233
     28 H           0.5944   -0.8904   -0.2104 H       1  UNL1        0.0233
     29 H           2.9204    1.0981    0.1016 H       1  UNL1        0.0311
     30 H           2.9186   -0.2783   -0.9943 H       1  UNL1        0.0311
     31 H           2.7054   -2.6557    0.0066 H       1  UNL1        0.0620
     32 H           2.9218   -4.0947    1.9931 H       1  UNL1        0.0625
     33 H           4.2361   -1.8650    5.8949 H       1  UNL1        0.1731
     34 H           4.3438   -4.7005    6.6770 H       1  UNL1        0.1731
     35 H           5.0300   -5.1145    8.9461 H       1  UNL1        0.0670
     36 H           5.5566   -2.5399   10.5640 H       1  UNL1        0.0625
     37 H           4.9841   -3.2322   13.0593 H       1  UNL1        0.0626
     38 H           6.0351   -4.4169   14.9437 H       1  UNL1        0.0685
     39 H           7.8564   -7.1909   12.1665 H       1  UNL1        0.0685
     40 H           6.9397   -5.9170   10.2941 H       1  UNL1        0.0626
     41 H           3.7625   -0.5944    4.3952 H       1  UNL1        0.0625
     42 H           3.3976    0.8153    2.4514 H       1  UNL1        0.0620
@<TRIPOS>UNITY_ATOM_ATTR
19 1
charge 1
21 1
charge -1
@<TRIPOS>BOND
     1     1     2    1
     2     2     3    1
     3     3     4   ar
     4     4     5   ar
     5     5     6   ar
     6     6     7    1
     7     7     8    2
     8     7     9   am
     9     9    10    1
    10    10    11   am
    11    11    12    2
    12    11    13    1
    13    13    14    2
    14    14    15    1
    15    15    16   ar
    16    16    17   ar
    17    17    18   ar
    18    18    19    1
    19    19    20    2
    20    19    21    1
    21    18    22   ar
    22    22    23   ar
    23    15    23   ar
    24     6    24   ar
    25    24    25   ar
    26     3    25   ar
    27     1    26    1
    28     1    27    1
    29     1    28    1
    30     2    29    1
    31     2    30    1
    32     4    31    1
    33     5    32    1
    34     9    33    1
    35    10    34    1
    36    13    35    1
    37    14    36    1
    38    16    37    1
    39    17    38    1
    40    22    39    1
    41    23    40    1
    42    24    41    1
    43    25    42    1
