REMARK  9 active torsions:
REMARK  status: ('A' for Active; 'I' for Inactive)
REMARK    1  A    between atoms: C_2  and  C_3 
REMARK       I    between atoms: C_2  and  N_14 
REMARK    2  A    between atoms: C_3  and  N_4 
REMARK       I    between atoms: N_4  and  C_5 
REMARK       I    between atoms: C_5  and  N_7 
REMARK    3  A    between atoms: N_7  and  C_8 
REMARK    4  A    between atoms: C_8  and  C_9 
REMARK    5  A    between atoms: N_14  and  C_15 
REMARK    6  A    between atoms: C_15  and  C_16 
REMARK    7  A    between atoms: C_16  and  N_17 
REMARK    8  A    between atoms: N_17  and  C_18 
REMARK    9  A    between atoms: C_21  and  N_22 
ROOT
ATOM      1  O   UNL d   1       1.058  -0.042   0.022  0.00  0.00    -0.272 OA
ATOM      2  C   UNL d   1       2.288  -0.078   0.086  0.00  0.00     0.235 C 
ATOM      3  N   UNL d   1       3.031   0.480  -0.927  0.00  0.00    -0.358 N 
ATOM      4  H   UNL d   1       2.472   0.882  -1.674  0.00  0.00     0.162 HD
ENDROOT
BRANCH   2   5
ATOM      5  C   UNL d   1       3.033  -0.724   1.263  0.00  0.00     0.227 C 
BRANCH   5   6
ATOM      6  N   UNL d   1       2.162  -1.292   2.283  0.00  0.00    -0.334 N 
ATOM      7  C   UNL d   1       2.695  -1.904   3.389  0.00  0.00     0.316 C 
ATOM      8  O   UNL d   1       3.905  -1.990   3.587  0.00  0.00    -0.247 OA
ATOM      9  N   UNL d   1       1.754  -2.411   4.239  0.00  0.00    -0.343 N 
ATOM     10  H   UNL d   1       0.794  -2.254   3.989  0.00  0.00     0.164 HD
ATOM     11  H   UNL d   1       1.162  -1.212   2.145  0.00  0.00     0.164 HD
BRANCH   9  12
ATOM     12  C   UNL d   1       2.095  -3.055   5.506  0.00  0.00     0.129 C 
BRANCH  12  13
ATOM     13  C   UNL d   1       0.900  -3.540   6.354  0.00  0.00     0.003 C 
ATOM     14  C   UNL d   1      -0.416  -2.801   6.127  0.00  0.00     0.006 C 
ATOM     15  C   UNL d   1      -1.489  -3.717   6.689  0.00  0.00     0.000 C 
ATOM     16  C   UNL d   1      -0.935  -5.132   6.547  0.00  0.00     0.000 C 
ATOM     17  C   UNL d   1       0.516  -4.996   6.085  0.00  0.00     0.006 C 
ENDBRANCH  12  13
ENDBRANCH   9  12
ENDBRANCH   5   6
ENDBRANCH   2   5
BRANCH   3  18
ATOM     18  C   UNL d   1       4.487   0.519  -1.024  0.00  0.00     0.142 C 
BRANCH  18  19
ATOM     19  C   UNL d   1       5.002   1.214  -2.297  0.00  0.00     0.139 C 
BRANCH  19  20
ATOM     20  N   UNL d   1       6.455   1.139  -2.412  0.00  0.00    -0.388 N 
ATOM     21  H   UNL d   1       7.004   0.783  -1.635  0.00  0.00     0.159 HD
BRANCH  20  22
ATOM     22  C   UNL d   1       7.141   1.830  -3.399  0.00  0.00     0.028 A 
ATOM     23  C   UNL d   1       8.261   1.242  -4.004  0.00  0.00     0.031 A 
ATOM     24  C   UNL d   1       8.968   1.897  -5.024  0.00  0.00     0.038 A 
ATOM     25  C   UNL d   1       8.513   3.135  -5.488  0.00  0.00     0.103 A 
ATOM     26  C   UNL d   1       7.414   3.749  -4.885  0.00  0.00     0.038 A 
ATOM     27  C   UNL d   1       6.740   3.093  -3.850  0.00  0.00     0.031 A 
BRANCH  25  28
ATOM     28  N   UNL d   1       9.143   3.763  -6.656  0.00  0.00    -0.116 N 
ATOM     29  O   UNL d   1      10.093   3.171  -7.188  0.00  0.00    -0.532 OA
ATOM     30  O   UNL d   1       8.671   4.836  -7.058  0.00  0.00    -0.532 OA
ENDBRANCH  25  28
ENDBRANCH  20  22
ENDBRANCH  19  20
ENDBRANCH  18  19
ENDBRANCH   3  18
TORSDOF 9
