@<TRIPOS>MOLECULE
*****
 49 51 0 0 0
SMALL
GASTEIGER

@<TRIPOS>ATOM
      1 C           2.8957   -0.7670   -1.1853 C.3     1  UNL1       -0.0190
      2 C           2.4783    0.2119   -0.0817 C.3     1  UNL1        0.1741
      3 O           1.0401    0.1651    0.0472 O.3     1  UNL1       -0.4798
      4 C           0.3070    1.3151    0.2028 C.ar    1  UNL1        0.1222
      5 C           0.8513    2.5587    0.4886 C.ar    1  UNL1       -0.0193
      6 C           0.1549    3.7355    0.2548 C.ar    1  UNL1       -0.0506
      7 C          -1.2078    3.6924    0.0431 C.ar    1  UNL1       -0.0177
      8 C          -1.9123    4.8956   -0.0421 C.ar    1  UNL1       -0.0540
      9 C          -3.2978    4.8805   -0.0916 C.ar    1  UNL1       -0.0612
     10 C          -3.9728    3.6614   -0.0889 C.ar    1  UNL1       -0.0612
     11 C          -3.2657    2.4507   -0.0556 C.ar    1  UNL1       -0.0539
     12 C          -1.8626    2.4400    0.0050 C.ar    1  UNL1       -0.0144
     13 C          -1.0819    1.2517    0.0354 C.ar    1  UNL1       -0.0122
     14 C           3.2584    1.5049   -0.5088 C.2     1  UNL1        0.2696
     15 O           2.8240    2.3191   -1.3293 O.2     1  UNL1       -0.2702
     16 N           4.4698    1.7517    0.1222 N.am    1  UNL1       -0.2301
     17 N           4.9865    3.0778   -0.0503 N.am    1  UNL1       -0.2181
     18 C           6.3430    3.2815   -0.1533 C.2     1  UNL1        0.3160
     19 O           7.1628    2.3772   -0.1042 O.2     1  UNL1       -0.2513
     20 N           6.7033    4.6159   -0.2476 N.am    1  UNL1       -0.2965
     21 C           8.1152    4.9630   -0.2606 C.3     1  UNL1        0.0312
     22 C           8.4746    6.4585   -0.3367 C.3     1  UNL1        0.0437
     23 N           9.9376    6.7270   -0.3499 N.ar    1  UNL1       -0.2943
     24 C          10.9656    5.7829   -0.3638 C.ar    1  UNL1        0.0732
     25 C          12.1455    6.4678   -0.3833 C.ar    1  UNL1        0.1870
     26 N          11.8143    7.7995   -0.3787 N.ar    1  UNL1       -0.2011
     27 C          10.4861    7.9570   -0.3573 C.ar    1  UNL1        0.2464
     28 H           3.9891   -0.8413   -1.2374 H       1  UNL1        0.0270
     29 H           2.5482   -0.3877   -2.1540 H       1  UNL1        0.0270
     30 H           2.4804   -1.7697   -1.0600 H       1  UNL1        0.0270
     31 H           2.8695   -0.1729    0.8721 H       1  UNL1        0.0829
     32 H           1.8599    2.6817    0.8458 H       1  UNL1        0.0654
     33 H           0.6940    4.6769    0.2849 H       1  UNL1        0.0625
     34 H          -1.3867    5.8480   -0.0233 H       1  UNL1        0.0624
     35 H          -3.8447    5.8189   -0.1091 H       1  UNL1        0.0618
     36 H          -5.0588    3.6539   -0.1110 H       1  UNL1        0.0618
     37 H          -3.8218    1.5166   -0.0470 H       1  UNL1        0.0624
     38 H          -1.5719    0.2838   -0.0572 H       1  UNL1        0.0660
     39 H           5.1738    1.0120    0.0972 H       1  UNL1        0.1729
     40 H           4.2925    3.7785   -0.2965 H       1  UNL1        0.1744
     41 H           5.9813    5.3223   -0.2802 H       1  UNL1        0.1503
     42 H           8.5644    4.4436   -1.1155 H       1  UNL1        0.0480
     43 H           8.5646    4.5368    0.6453 H       1  UNL1        0.0480
     44 H           8.0518    6.9941    0.5220 H       1  UNL1        0.0509
     45 H           8.0530    6.9040   -1.2455 H       1  UNL1        0.0509
     46 H          10.7411    4.7298   -0.3582 H       1  UNL1        0.0871
     47 H          13.1803    6.1725   -0.3996 H       1  UNL1        0.1392
     48 H          12.4846    8.5659   -0.3904 H       1  UNL1        0.4538
     49 H           9.9611    8.9060   -0.3484 H       1  UNL1        0.1600
@<TRIPOS>UNITY_ATOM_ATTR
26 1
charge 1
@<TRIPOS>BOND
     1     3     4    1
     2     4     5   ar
     3     5     6   ar
     4     6     7   ar
     5     7     8   ar
     6     8     9   ar
     7     9    10   ar
     8    10    11   ar
     9    11    12   ar
    10     7    12   ar
    11    12    13   ar
    12     4    13   ar
    13     2    14    1
    14    14    15    2
    15    14    16   am
    16    16    17    1
    17    17    18   am
    18    18    19    2
    19    18    20   am
    20    20    21    1
    21    21    22    1
    22    22    23    1
    23    23    24   ar
    24    24    25   ar
    25    25    26   ar
    26    26    27   ar
    27    23    27   ar
    28     2     3    1
    29     2     1    1
    30     1    28    1
    31     1    29    1
    32     1    30    1
    33     2    31    1
    34     5    32    1
    35     6    33    1
    36     8    34    1
    37     9    35    1
    38    10    36    1
    39    11    37    1
    40    13    38    1
    41    16    39    1
    42    17    40    1
    43    20    41    1
    44    21    42    1
    45    21    43    1
    46    22    44    1
    47    22    45    1
    48    24    46    1
    49    25    47    1
    50    26    48    1
    51    27    49    1
