REMARK  8 active torsions:
REMARK  status: ('A' for Active; 'I' for Inactive)
REMARK    1  A    between atoms: C_2  and  C_3 
REMARK       I    between atoms: C_2  and  N_12 
REMARK    2  A    between atoms: C_3  and  C_4 
REMARK    3  A    between atoms: C_4  and  C_5 
REMARK    4  A    between atoms: C_5  and  C_6 
REMARK    5  A    between atoms: N_12  and  N_13 
REMARK       I    between atoms: N_13  and  C_14 
REMARK    6  A    between atoms: C_14  and  C_16 
REMARK    7  A    between atoms: C_20  and  N_21 
REMARK       I    between atoms: N_21  and  C_22 
REMARK    8  A    between atoms: C_22  and  C_24 
ROOT
ATOM      1  N   UNL d   1       4.428   1.035   0.605  0.00  0.00    -0.263 N 
ATOM      2  C   UNL d   1       5.046   2.085   1.276  0.00  0.00     0.270 C 
ATOM      3  O   UNL d   1       4.434   2.983   1.846  0.00  0.00    -0.266 OA
ATOM      4  H   UNL d   1       4.955   0.298   0.149  0.00  0.00     0.190 HD
ENDROOT
BRANCH   2   5
ATOM      5  C   UNL d   1       6.536   2.099   1.252  0.00  0.00     0.035 A 
ATOM      6  C   UNL d   1       7.287   2.528   2.344  0.00  0.00     0.017 A 
ATOM      7  C   UNL d   1       8.676   2.667   2.216  0.00  0.00     0.003 A 
ATOM      8  C   UNL d   1       9.322   2.341   1.009  0.00  0.00     0.029 A 
ATOM      9  C   UNL d   1       8.572   1.914  -0.094  0.00  0.00     0.036 A 
ATOM     10  C   UNL d   1       7.187   1.797   0.058  0.00  0.00     0.046 A 
BRANCH   9  11
ATOM     11  N   UNL d   1       9.203   1.646  -1.340  0.00  0.00    -0.321 N 
ATOM     12  C   UNL d   1       8.537   1.326  -2.527  0.00  0.00     0.279 C 
ATOM     13  O   UNL d   1       7.311   1.225  -2.638  0.00  0.00    -0.265 OA
ATOM     14  H   UNL d   1      10.207   1.788  -1.393  0.00  0.00     0.169 HD
BRANCH  12  15
ATOM     15  C   UNL d   1       9.370   1.089  -3.678  0.00  0.00     0.142 A 
ATOM     16  C   UNL d   1      10.526   0.355  -3.855  0.00  0.00     0.045 A 
ATOM     17  C   UNL d   1      10.814   0.388  -5.242  0.00  0.00     0.027 A 
ATOM     18  C   UNL d   1       9.822   1.137  -5.828  0.00  0.00     0.143 A 
ATOM     19  O   UNL d   1       8.937   1.556  -4.891  0.00  0.00    -0.317 OA
ENDBRANCH  12  15
ENDBRANCH   9  11
ENDBRANCH   2   5
BRANCH   1  20
ATOM     20  N   UNL d   1       3.029   1.003   0.557  0.00  0.00    -0.267 N 
ATOM     21  C   UNL d   1       2.272   0.006  -0.009  0.00  0.00     0.236 C 
ATOM     22  O   UNL d   1       1.043   0.072   0.024  0.00  0.00    -0.272 OA
ATOM     23  H   UNL d   1       2.536   1.785   0.991  0.00  0.00     0.190 HD
BRANCH  21  24
ATOM     24  C   UNL d   1       3.008  -1.152  -0.663  0.00  0.00     0.105 C 
BRANCH  24  25
ATOM     25  C   UNL d   1       2.031  -2.164  -1.254  0.00  0.00     0.014 C 
BRANCH  25  26
ATOM     26  C   UNL d   1       2.747  -3.324  -1.950  0.00  0.00     0.039 C 
BRANCH  26  27
ATOM     27  C   UNL d   1       1.792  -4.363  -2.491  0.00  0.00    -0.058 A 
ATOM     28  C   UNL d   1       0.536  -4.024  -3.017  0.00  0.00     0.007 A 
ATOM     29  C   UNL d   1      -0.373  -5.014  -3.382  0.00  0.00     0.001 A 
ATOM     30  C   UNL d   1       0.002  -6.353  -3.329  0.00  0.00     0.000 A 
ATOM     31  C   UNL d   1       1.272  -6.702  -2.875  0.00  0.00     0.001 A 
ATOM     32  C   UNL d   1       2.161  -5.714  -2.454  0.00  0.00     0.007 A 
ENDBRANCH  26  27
ENDBRANCH  25  26
ENDBRANCH  24  25
ENDBRANCH  21  24
ENDBRANCH   1  20
TORSDOF 8
