REMARK  7 active torsions:
REMARK  status: ('A' for Active; 'I' for Inactive)
REMARK    1  A    between atoms: C_2  and  C_3 
REMARK       I    between atoms: C_3  and  N_5 
REMARK    2  A    between atoms: N_5  and  C_6 
REMARK    3  A    between atoms: C_6  and  N_8 
REMARK    4  A    between atoms: N_8  and  N_9 
REMARK       I    between atoms: N_9  and  C_10 
REMARK    5  A    between atoms: C_10  and  C_12 
REMARK    6  A    between atoms: C_12  and  O_13 
REMARK    7  A    between atoms: O_13  and  C_14 
ROOT
ATOM      1  N   UNL d   1       7.003  -4.348   1.399  0.00  0.00    -0.266 N 
ATOM      2  C   UNL d   1       8.381  -4.514   1.460  0.00  0.00     0.260 C 
ATOM      3  O   UNL d   1       9.139  -3.586   1.161  0.00  0.00    -0.269 OA
ATOM      4  H   UNL d   1       6.336  -5.084   1.635  0.00  0.00     0.190 HD
ENDROOT
BRANCH   1   5
ATOM      5  N   UNL d   1       6.399  -3.076   0.990  0.00  0.00    -0.273 N 
ATOM      6  H   UNL d   1       7.071  -2.346   0.757  0.00  0.00     0.189 HD
BRANCH   5   7
ATOM      7  C   UNL d   1       4.997  -2.971   0.956  0.00  0.00     0.193 C 
ATOM      8  S   UNL d   1       4.073  -4.322   1.386  0.00  0.00    -0.039 SA
BRANCH   7   9
ATOM      9  N   UNL d   1       4.473  -1.714   0.555  0.00  0.00    -0.303 N 
ATOM     10  C   UNL d   1       3.105  -1.393   0.452  0.00  0.00     0.223 C 
ATOM     11  O   UNL d   1       2.202  -2.197   0.709  0.00  0.00    -0.273 OA
ATOM     12  H   UNL d   1       5.129  -0.980   0.321  0.00  0.00     0.171 HD
BRANCH  10  13
ATOM     13  C   UNL d   1       2.691   0.014   0.003  0.00  0.00     0.099 C 
ATOM     14  C   UNL d   1       1.149   0.108  -0.027  0.00  0.00     0.014 C 
ENDBRANCH  10  13
ENDBRANCH   7   9
ENDBRANCH   5   7
ENDBRANCH   1   5
BRANCH   2  15
ATOM     15  C   UNL d   1       8.885  -5.925   1.911  0.00  0.00     0.280 C 
BRANCH  15  16
ATOM     16  O   UNL d   1      10.320  -5.960   1.990  0.00  0.00    -0.342 OA
BRANCH  16  17
ATOM     17  C   UNL d   1      10.909  -7.157   2.314  0.00  0.00     0.070 A 
ATOM     18  C   UNL d   1      10.527  -8.385   1.778  0.00  0.00     0.043 A 
ATOM     19  C   UNL d   1      11.207  -9.566   2.125  0.00  0.00    -0.059 A 
ATOM     20  C   UNL d   1      10.766 -10.885   1.558  0.00  0.00     0.048 C 
ATOM     21  C   UNL d   1      12.294  -9.507   3.010  0.00  0.00     0.013 A 
ATOM     22  C   UNL d   1      12.711  -8.278   3.537  0.00  0.00    -0.059 A 
ATOM     23  C   UNL d   1      13.872  -8.199   4.488  0.00  0.00     0.048 C 
ATOM     24  C   UNL d   1      12.021  -7.109   3.166  0.00  0.00     0.043 A 
ENDBRANCH  16  17
ENDBRANCH  15  16
ENDBRANCH   2  15
TORSDOF 7
