@<TRIPOS>MOLECULE
*****
 37 37 0 0 0
SMALL
GASTEIGER

@<TRIPOS>ATOM
      1 C           0.9869   -0.2640   -0.2523 C.3     1  UNL1       -0.0646
      2 C           2.4941   -0.0810   -0.0906 C.3     1  UNL1       -0.0447
      3 C           3.0154    1.3612    0.1864 C.3     1  UNL1        0.0365
      4 C           2.4970    1.9389    1.5225 C.3     1  UNL1       -0.0447
      5 C           0.9870    2.1206    1.6455 C.3     1  UNL1       -0.0646
      6 C           4.5809    1.3573    0.1675 C.2     1  UNL1        0.2322
      7 O           5.2400    0.3289   -0.0017 O.2     1  UNL1       -0.2740
      8 N           5.2210    2.5813    0.3278 N.am    1  UNL1       -0.2339
      9 N           6.6488    2.6169    0.3194 N.am    1  UNL1       -0.2304
     10 C           7.3098    3.8157    0.5655 C.2     1  UNL1        0.2604
     11 O           6.7266    4.8691    0.7838 O.2     1  UNL1       -0.2687
     12 C           8.8113    3.7942    0.5330 C.ar    1  UNL1        0.0446
     13 C           9.5410    4.6032    1.4245 C.ar    1  UNL1       -0.0492
     14 C          10.9341    4.7341    1.3049 C.ar    1  UNL1       -0.0546
     15 C          11.6224    4.0203    0.3248 C.ar    1  UNL1        0.0156
     16 C          10.8988    3.2138   -0.5638 C.ar    1  UNL1        0.2739
     17 N          11.6063    2.5293   -1.6552 N.pl3   1  UNL1        0.0796
     18 O          12.8365    2.6623   -1.7220 O.2     1  UNL1        0.0414
     19 O          10.9256    1.8654   -2.4487 O.co2   1  UNL1       -0.5760
     20 C           9.4984    3.0957   -0.4658 C.ar    1  UNL1        0.0277
     21 H           0.7502   -1.2600   -0.6374 H       1  UNL1        0.0230
     22 H           0.5569    0.4867   -0.9217 H       1  UNL1        0.0230
     23 H           0.4633   -0.2427    0.7002 H       1  UNL1        0.0230
     24 H           2.9544   -0.4483   -1.0167 H       1  UNL1        0.0270
     25 H           2.8387   -0.7481    0.7094 H       1  UNL1        0.0270
     26 H           2.6936    2.0074   -0.6420 H       1  UNL1        0.0394
     27 H           2.9437    2.9257    1.6838 H       1  UNL1        0.0270
     28 H           2.8451    1.3029    2.3448 H       1  UNL1        0.0270
     29 H           0.5615    2.5939    0.7550 H       1  UNL1        0.0230
     30 H           0.7350    2.7214    2.5228 H       1  UNL1        0.0230
     31 H           0.4728    1.1821    1.8358 H       1  UNL1        0.0230
     32 H           4.7461    3.4722    0.4554 H       1  UNL1        0.1728
     33 H           7.1132    1.7166    0.2180 H       1  UNL1        0.1731
     34 H           9.0286    5.1504    2.2151 H       1  UNL1        0.0625
     35 H          11.4811    5.4135    1.9583 H       1  UNL1        0.0620
     36 H          12.7063    4.1154    0.2558 H       1  UNL1        0.0685
     37 H           8.9454    2.5085   -1.1942 H       1  UNL1        0.0693
@<TRIPOS>UNITY_ATOM_ATTR
17 1
charge 1
19 1
charge -1
@<TRIPOS>BOND
     1     1     2    1
     2     2     3    1
     3     3     4    1
     4     4     5    1
     5     3     6    1
     6     6     7    2
     7     6     8   am
     8     8     9    1
     9     9    10   am
    10    10    11    2
    11    10    12    1
    12    12    13   ar
    13    13    14   ar
    14    14    15   ar
    15    15    16   ar
    16    16    17    1
    17    17    18    2
    18    17    19    1
    19    16    20   ar
    20    12    20   ar
    21     1    21    1
    22     1    22    1
    23     1    23    1
    24     2    24    1
    25     2    25    1
    26     3    26    1
    27     4    27    1
    28     4    28    1
    29     5    29    1
    30     5    30    1
    31     5    31    1
    32     8    32    1
    33     9    33    1
    34    13    34    1
    35    14    35    1
    36    15    36    1
    37    20    37    1
