@<TRIPOS>MOLECULE
*****
 61 64 0 0 0
SMALL
GASTEIGER

@<TRIPOS>ATOM
      1 C          20.3187   10.5923   -4.4974 C.3     1  UNL1        0.0790
      2 O          19.6866   10.1157   -3.3096 O.3     1  UNL1       -0.4913
      3 C          19.5442    8.7670   -3.0606 C.ar    1  UNL1        0.1655
      4 C          18.2237    8.3891   -2.7357 C.ar    1  UNL1       -0.0114
      5 C          17.9300    7.1639   -2.1010 C.ar    1  UNL1       -0.0232
      6 C          16.5542    6.9769   -1.5245 C.3     1  UNL1        0.0371
      7 N          16.3817    5.8092   -0.7202 N.am    1  UNL1       -0.3110
      8 C          15.1704    5.5677   -0.1550 C.2     1  UNL1        0.2165
      9 O          14.1535    6.2899   -0.2443 O.2     1  UNL1       -0.2755
     10 C          15.1514    4.3142    0.6080 C.3     1  UNL1        0.0379
     11 C          13.8944    3.4018    0.1187 C.3     1  UNL1       -0.0286
     12 C          12.8331    3.5562    1.1748 C.3     1  UNL1        0.0117
     13 N          13.6032    3.3604    2.6461 N.3     1  UNL1       -0.1843
     14 C          13.9360    1.9360    3.4687 C.3     1  UNL1        0.4121
     15 N          15.4400    1.1376    3.9820 N.2     1  UNL1       -0.1606
     16 C          15.9515    0.4965    2.9758 C.ar    1  UNL1        0.2788
     17 C          17.3098    0.0076    2.4400 C.ar    1  UNL1        0.0176
     18 C          17.7836    0.6116    1.3180 C.ar    1  UNL1       -0.0367
     19 C          16.9779    1.5614    0.6521 C.ar    1  UNL1        0.0476
     20 CL         17.6522    2.4737   -0.6521 Cl      1  UNL1       -0.0833
     21 C          15.6821    1.5166    0.9612 C.ar    1  UNL1        0.0345
     22 C          14.9494    0.6950    1.9337 C.ar    1  UNL1        0.2801
     23 N          13.7625    0.9182    2.4044 N.2     1  UNL1       -0.1605
     24 C          14.2574    4.6929    2.9180 C.3     1  UNL1        0.0117
     25 C          15.5322    4.5349    2.1579 C.3     1  UNL1       -0.0286
     26 C          18.9639    6.2394   -1.9341 C.ar    1  UNL1       -0.0114
     27 C          20.2777    6.5804   -2.2394 C.ar    1  UNL1        0.1655
     28 O          21.1847    5.6006   -1.8661 O.3     1  UNL1       -0.4913
     29 C          22.5717    5.8871   -2.0594 C.3     1  UNL1        0.0790
     30 C          20.5761    7.8481   -2.7942 C.ar    1  UNL1        0.2035
     31 O          21.9125    8.0160   -2.9232 O.3     1  UNL1       -0.4885
     32 C          22.4609    9.1158   -3.5498 C.3     1  UNL1        0.0791
     33 H          20.0059   11.6209   -4.6728 H       1  UNL1        0.0660
     34 H          20.1535    9.9459   -5.3624 H       1  UNL1        0.0660
     35 H          21.3833   10.7934   -4.3858 H       1  UNL1        0.0660
     36 H          17.4075    9.0894   -2.9239 H       1  UNL1        0.0658
     37 H          15.7887    6.9472   -2.3038 H       1  UNL1        0.0512
     38 H          16.3398    7.8011   -0.8343 H       1  UNL1        0.0512
     39 H          17.1310    5.1284   -0.6567 H       1  UNL1        0.1490
     40 H          16.0319    3.8405    0.2335 H       1  UNL1        0.0395
     41 H          13.9578    2.3065    0.0821 H       1  UNL1        0.0285
     42 H          13.6937    3.5228   -0.9562 H       1  UNL1        0.0285
     43 H          11.9616    2.9055    1.0766 H       1  UNL1        0.0431
     44 H          12.5078    4.6009    1.0498 H       1  UNL1        0.0431
     45 H          13.1982    1.8455    4.2850 H       1  UNL1        0.2157
     46 H          15.3405    0.4702    4.7860 H       1  UNL1        0.4544
     47 H          17.7790   -0.9503    2.6514 H       1  UNL1        0.0686
     48 H          18.6976    0.3978    0.7592 H       1  UNL1        0.0634
     49 H          15.3271    2.4627    1.2428 H       1  UNL1        0.0700
     50 H          13.2773    0.2439    3.0127 H       1  UNL1        0.4544
     51 H          14.3026    4.8837    3.9872 H       1  UNL1        0.0431
     52 H          13.7033    5.5299    2.4515 H       1  UNL1        0.0431
     53 H          15.9860    3.6529    2.6380 H       1  UNL1        0.0285
     54 H          16.2905    5.3069    2.3110 H       1  UNL1        0.0285
     55 H          18.8071    5.2494   -1.5247 H       1  UNL1        0.0658
     56 H          23.1822    5.0571   -1.7087 H       1  UNL1        0.0660
     57 H          22.8805    6.7579   -1.4628 H       1  UNL1        0.0660
     58 H          22.7867    6.0015   -3.1302 H       1  UNL1        0.0660
     59 H          23.5465    9.0692   -3.6083 H       1  UNL1        0.0660
     60 H          22.2183    9.9772   -2.9237 H       1  UNL1        0.0660
     61 H          22.1240    9.0736   -4.5870 H       1  UNL1        0.0660
@<TRIPOS>UNITY_ATOM_ATTR
15 1
charge 1
23 1
charge 1
@<TRIPOS>BOND
     1     1     2    1
     2     2     3    1
     3     3     4   ar
     4     4     5   ar
     5     5     6    1
     6     6     7    1
     7     7     8   am
     8     8     9    2
     9     8    10    1
    10    10    11    1
    11    11    12    1
    12    12    13    1
    13    14    15    1
    14    15    16    2
    15    16    17   ar
    16    17    18   ar
    17    18    19   ar
    18    19    20    1
    19    19    21   ar
    20    21    22   ar
    21    16    22   ar
    22    22    23    2
    23    14    23    1
    24    13    24    1
    25    24    25    1
    26    10    25    1
    27     5    26   ar
    28    26    27   ar
    29    27    28    1
    30    28    29    1
    31    27    30   ar
    32     3    30   ar
    33    30    31    1
    34    31    32    1
    35    14    13    1
    36     1    33    1
    37     1    34    1
    38     1    35    1
    39     4    36    1
    40     6    37    1
    41     6    38    1
    42     7    39    1
    43    10    40    1
    44    11    41    1
    45    11    42    1
    46    12    43    1
    47    12    44    1
    48    14    45    1
    49    15    46    1
    50    17    47    1
    51    18    48    1
    52    21    49    1
    53    23    50    1
    54    24    51    1
    55    24    52    1
    56    25    53    1
    57    25    54    1
    58    26    55    1
    59    29    56    1
    60    29    57    1
    61    29    58    1
    62    32    59    1
    63    32    60    1
    64    32    61    1
