@<TRIPOS>MOLECULE
*****
 53 56 0 0 0
SMALL
GASTEIGER

@<TRIPOS>ATOM
      1 C           1.8599    1.5076   -0.0130 C.3     1  UNL1       -0.0395
      2 C           0.5818    0.7168   -0.0109 C.ar    1  UNL1       -0.0474
      3 C          -0.6472    1.3980   -0.0181 C.ar    1  UNL1       -0.0566
      4 C          -1.8539    0.7010   -0.0806 C.ar    1  UNL1       -0.0359
      5 C          -1.8491   -0.6897   -0.1078 C.ar    1  UNL1        0.0695
      6 N          -3.0778   -1.3956   -0.1094 N.ar    1  UNL1       -0.1956
      7 N          -3.9434   -1.1066   -1.1688 N.ar    1  UNL1       -0.1579
      8 C          -5.0531   -1.7943   -1.2658 C.ar    1  UNL1        0.1556
      9 C          -5.9735   -1.5469   -2.4968 C.2     1  UNL1        0.2839
     10 O          -7.0259   -2.1703   -2.6238 O.2     1  UNL1       -0.2667
     11 N          -5.5581   -0.6128   -3.4371 N.am    1  UNL1       -0.2016
     12 N          -6.4147   -0.3575   -4.4899 N.2     1  UNL1       -0.1874
     13 C          -6.0369    0.4511   -5.4258 C.2     1  UNL1        0.0528
     14 C          -6.9186    0.7089   -6.5981 C.ar    1  UNL1       -0.0049
     15 C          -8.2965    0.8850   -6.4316 C.ar    1  UNL1       -0.0531
     16 C          -9.1253    1.0467   -7.5469 C.ar    1  UNL1       -0.0606
     17 C          -8.6024    0.8913   -8.8293 C.ar    1  UNL1       -0.0501
     18 C          -7.2238    0.7010   -9.0120 C.ar    1  UNL1        0.0554
     19 C          -6.6980    0.4263  -10.4009 C.3     1  UNL1        0.4174
     20 F          -7.2241   -0.7127  -10.9338 F       1  UNL1       -0.1659
     21 F          -6.9922    1.4202  -11.2824 F       1  UNL1       -0.1659
     22 F          -5.3467    0.2675  -10.4469 F       1  UNL1       -0.1659
     23 C          -6.3735    0.7002   -7.8872 C.ar    1  UNL1       -0.0415
     24 C          -5.4389   -2.8249   -0.2562 C.ar    1  UNL1        0.0196
     25 C          -6.5711   -3.6364   -0.3517 C.ar    1  UNL1       -0.0516
     26 C          -6.7418   -4.7303    0.4932 C.ar    1  UNL1       -0.0611
     27 C          -5.9493   -4.8620    1.6212 C.ar    1  UNL1       -0.0610
     28 C          -4.8965   -3.9800    1.8164 C.ar    1  UNL1       -0.0487
     29 C          -4.5914   -3.0333    0.8253 C.ar    1  UNL1        0.0506
     30 C          -3.3297   -2.3051    0.9111 C.ar    1  UNL1        0.2797
     31 O          -2.5842   -2.5398    1.8698 O.2     1  UNL1       -0.2652
     32 C          -0.6280   -1.3802   -0.0369 C.ar    1  UNL1       -0.0330
     33 C           0.5943   -0.6909   -0.0076 C.ar    1  UNL1       -0.0455
     34 C           1.8819   -1.4689    0.0259 C.3     1  UNL1       -0.0394
     35 H           1.6627    2.5844   -0.0232 H       1  UNL1        0.0278
     36 H           2.4430    1.2721   -0.9092 H       1  UNL1        0.0278
     37 H           2.4519    1.2844    0.8795 H       1  UNL1        0.0278
     38 H          -0.6730    2.4837    0.0331 H       1  UNL1        0.0621
     39 H          -2.7959    1.2389   -0.0350 H       1  UNL1        0.0639
     40 H          -4.6624   -0.1453   -3.3448 H       1  UNL1        0.1776
     41 H          -5.0502    0.9411   -5.4159 H       1  UNL1        0.0851
     42 H          -8.7325    0.8984   -5.4355 H       1  UNL1        0.0624
     43 H         -10.1854    1.2557   -7.4183 H       1  UNL1        0.0618
     44 H          -9.2735    0.8975   -9.6894 H       1  UNL1        0.0623
     45 H          -5.2973    0.6250   -8.0271 H       1  UNL1        0.0629
     46 H          -7.3568   -3.4810   -1.0788 H       1  UNL1        0.0624
     47 H          -7.5071   -5.4649    0.2585 H       1  UNL1        0.0618
     48 H          -6.1513   -5.6489    2.3406 H       1  UNL1        0.0618
     49 H          -4.2828   -4.0627    2.7119 H       1  UNL1        0.0625
     50 H          -0.6275   -2.4688   -0.0203 H       1  UNL1        0.0641
     51 H           1.7014   -2.5493    0.0314 H       1  UNL1        0.0278
     52 H           2.4526   -1.2269    0.9283 H       1  UNL1        0.0278
     53 H           2.4853   -1.2417   -0.8589 H       1  UNL1        0.0278
@<TRIPOS>BOND
     1     1     2    1
     2     2     3   ar
     3     3     4   ar
     4     4     5   ar
     5     5     6    1
     6     6     7   ar
     7     7     8   ar
     8     8     9    1
     9     9    10    2
    10     9    11   am
    11    11    12    1
    12    12    13    2
    13    13    14    1
    14    14    15   ar
    15    15    16   ar
    16    16    17   ar
    17    17    18   ar
    18    18    19    1
    19    19    20    1
    20    19    21    1
    21    19    22    1
    22    18    23   ar
    23    14    23   ar
    24     8    24   ar
    25    24    25   ar
    26    25    26   ar
    27    26    27   ar
    28    27    28   ar
    29    28    29   ar
    30    24    29   ar
    31    29    30   ar
    32     6    30   ar
    33    30    31    2
    34     5    32   ar
    35    32    33   ar
    36     2    33   ar
    37    33    34    1
    38     1    35    1
    39     1    36    1
    40     1    37    1
    41     3    38    1
    42     4    39    1
    43    11    40    1
    44    13    41    1
    45    15    42    1
    46    16    43    1
    47    17    44    1
    48    23    45    1
    49    25    46    1
    50    26    47    1
    51    27    48    1
    52    28    49    1
    53    32    50    1
    54    34    51    1
    55    34    52    1
    56    34    53    1
