REMARK  7 active torsions:
REMARK  status: ('A' for Active; 'I' for Inactive)
REMARK    1  A    between atoms: C_3  and  C_4 
REMARK       I    between atoms: C_4  and  N_6 
REMARK    2  A    between atoms: N_6  and  C_7 
REMARK    3  A    between atoms: C_14  and  C_15 
REMARK    4  A    between atoms: C_23  and  S_24 
REMARK    5  A    between atoms: S_24  and  C_25 
REMARK    6  A    between atoms: C_25  and  C_26 
REMARK       I    between atoms: C_26  and  N_28 
REMARK    7  A    between atoms: N_28  and  C_29 
ROOT
ATOM      1  C   UNL d   1       1.024  -0.236   0.147  0.00  0.00     0.069 C 
ATOM      2  C   UNL d   1       2.522  -0.013   0.105  0.00  0.00     0.019 C 
ATOM      3  C   UNL d   1       3.102   1.214  -0.015  0.00  0.00     0.048 C 
ATOM      4  C   UNL d   1       4.612   1.334  -0.184  0.00  0.00     0.129 C 
ATOM      5  C   UNL d   1       5.298  -0.004  -0.294  0.00  0.00     0.057 C 
ATOM      6  C   UNL d   1       6.759   0.101  -0.700  0.00  0.00     0.019 C 
ATOM      7  N   UNL d   1       7.971   0.189  -1.036  0.00  0.00    -0.096 N 
ATOM      8  C   UNL d   1       4.665  -1.201  -0.182  0.00  0.00     0.087 C 
ATOM      9  N   UNL d   1       3.313  -1.171   0.126  0.00  0.00    -0.353 N 
ATOM     10  H   UNL d   1       2.858  -2.062   0.287  0.00  0.00     0.166 HD
ENDROOT
BRANCH   4  11
ATOM     11  C   UNL d   1       5.001   2.236  -1.352  0.00  0.00     0.066 C 
ATOM     12  C   UNL d   1       4.963   3.590  -1.562  0.00  0.00     0.035 C 
ATOM     13  C   UNL d   1       5.205   3.841  -2.913  0.00  0.00     0.027 C 
ATOM     14  C   UNL d   1       5.706   2.665  -3.389  0.00  0.00     0.142 C 
ATOM     15  O   UNL d   1       5.512   1.667  -2.489  0.00  0.00    -0.326 OA
ENDBRANCH   4  11
BRANCH   8  16
ATOM     16  S   UNL d   1       5.639  -2.632  -0.475  0.00  0.00    -0.102 SA
BRANCH  16  17
ATOM     17  C   UNL d   1       4.654  -4.153  -0.392  0.00  0.00     0.184 C 
BRANCH  17  18
ATOM     18  C   UNL d   1       5.563  -5.366  -0.735  0.00  0.00     0.231 C 
ATOM     19  O   UNL d   1       6.745  -5.231  -1.055  0.00  0.00    -0.272 OA
ATOM     20  N   UNL d   1       4.947  -6.619  -0.698  0.00  0.00    -0.327 N 
ATOM     21  H   UNL d   1       3.939  -6.688  -0.653  0.00  0.00     0.169 HD
BRANCH  20  22
ATOM     22  C   UNL d   1       5.666  -7.823  -0.944  0.00  0.00     0.034 A 
ATOM     23  C   UNL d   1       5.072  -8.874  -1.651  0.00  0.00     0.029 A 
ATOM     24  C   UNL d   1       5.763 -10.084  -1.835  0.00  0.00     0.002 A 
ATOM     25  C   UNL d   1       7.059 -10.237  -1.343  0.00  0.00     0.000 A 
ATOM     26  C   UNL d   1       7.653  -9.197  -0.638  0.00  0.00     0.002 A 
ATOM     27  C   UNL d   1       6.960  -8.000  -0.443  0.00  0.00     0.029 A 
ENDBRANCH  20  22
ENDBRANCH  17  18
ENDBRANCH  16  17
ENDBRANCH   8  16
BRANCH   3  28
ATOM     28  C   UNL d   1       2.301   2.479  -0.174  0.00  0.00     0.255 C 
ATOM     29  O   UNL d   1       1.192   2.452  -0.728  0.00  0.00    -0.268 OA
ATOM     30  N   UNL d   1       2.882   3.668   0.227  0.00  0.00    -0.323 N 
ATOM     31  H   UNL d   1       3.818   3.686   0.611  0.00  0.00     0.169 HD
BRANCH  30  32
ATOM     32  C   UNL d   1       2.256   4.917  -0.052  0.00  0.00     0.041 A 
ATOM     33  C   UNL d   1       2.702   5.860  -1.008  0.00  0.00     0.030 A 
ATOM     34  C   UNL d   1       2.037   7.075  -1.188  0.00  0.00     0.002 A 
ATOM     35  C   UNL d   1       0.933   7.360  -0.403  0.00  0.00     0.001 A 
ATOM     36  C   UNL d   1       0.497   6.436   0.550  0.00  0.00     0.009 A 
ATOM     37  C   UNL d   1       1.153   5.217   0.736  0.00  0.00    -0.035 A 
ATOM     38  C   UNL d   1       0.735   4.252   1.806  0.00  0.00     0.050 C 
ENDBRANCH  30  32
ENDBRANCH   3  28
TORSDOF 7
