@<TRIPOS>MOLECULE
*****
 62 63 0 0 0
SMALL
GASTEIGER

@<TRIPOS>ATOM
      1 C           1.0012    0.1121    0.0201 C.3     1  UNL1       -0.0307
      2 C           2.5182    0.1139    0.0365 C.3     1  UNL1        0.0868
      3 O           2.9301   -1.2549    0.0239 O.3     1  UNL1       -0.4915
      4 C           4.2851   -1.4458    0.0090 C.ar    1  UNL1        0.1326
      5 C           5.1544   -0.7591    0.8740 C.ar    1  UNL1       -0.0181
      6 C           6.5270   -1.0390    0.8964 C.ar    1  UNL1       -0.0443
      7 C           7.0427   -2.0177    0.0615 C.ar    1  UNL1        0.0188
      8 BR          8.8899   -2.4189    0.1024 Br      1  UNL1       -0.0503
      9 C           6.1925   -2.7081   -0.7955 C.ar    1  UNL1       -0.0321
     10 C           4.7995   -2.4347   -0.8304 C.ar    1  UNL1        0.0797
     11 C           3.9962   -3.2350   -1.8024 C.2     1  UNL1        0.2531
     12 O           4.6555   -4.0593   -2.4311 O.2     1  UNL1       -0.2697
     13 N           2.6014   -3.0549   -1.9574 N.am    1  UNL1       -0.2635
     14 C           1.8073   -3.6978   -2.9318 C.2     1  UNL1        0.1411
     15 S           2.4688   -4.7139   -4.1248 S.2     1  UNL1       -0.0182
     16 N           0.4176   -3.4008   -2.8670 N.am    1  UNL1       -0.2966
     17 C          -0.5523   -4.0945   -3.6696 C.ar    1  UNL1        0.0326
     18 C          -1.5397   -3.4614   -4.4359 C.ar    1  UNL1       -0.0398
     19 C          -2.3895   -4.2328   -5.2713 C.ar    1  UNL1       -0.0479
     20 C          -2.2256   -5.6260   -5.3702 C.ar    1  UNL1        0.0368
     21 C          -3.0604   -6.4398   -6.3056 C.2     1  UNL1        0.2442
     22 O          -3.8361   -5.9121   -7.0815 O.2     1  UNL1       -0.2702
     23 N          -2.8643   -7.8314   -6.2766 N.am    1  UNL1       -0.3063
     24 C          -3.4687   -8.5877   -7.3333 C.3     1  UNL1        0.0520
     25 C          -3.0328  -10.0477   -7.4652 C.3     1  UNL1       -0.0160
     26 N          -3.7784  -10.8017   -8.5746 N.4     1  UNL1        0.2359
     27 C          -3.5558  -10.2549   -9.9826 C.3     1  UNL1       -0.0348
     28 C          -4.1056   -8.8667  -10.2319 C.3     1  UNL1       -0.0245
     29 C          -3.3781  -12.2832   -8.5063 C.3     1  UNL1       -0.0348
     30 C          -4.1727  -13.1303   -9.4859 C.3     1  UNL1       -0.0245
     31 C          -1.2692   -6.2397   -4.5732 C.ar    1  UNL1       -0.0479
     32 C          -0.4904   -5.4879   -3.7088 C.ar    1  UNL1       -0.0398
     33 H           0.6106    1.1322    0.0230 H       1  UNL1        0.0262
     34 H           0.6126   -0.4206    0.8952 H       1  UNL1        0.0262
     35 H           0.6227   -0.4137   -0.8630 H       1  UNL1        0.0262
     36 H           2.8586    0.6307    0.9379 H       1  UNL1        0.0694
     37 H           2.9005    0.6231   -0.8559 H       1  UNL1        0.0694
     38 H           4.7864   -0.0158    1.5742 H       1  UNL1        0.0655
     39 H           7.1807   -0.5006    1.5791 H       1  UNL1        0.0630
     40 H           6.6187   -3.4749   -1.4443 H       1  UNL1        0.0637
     41 H           2.1715   -2.3925   -1.3229 H       1  UNL1        0.1568
     42 H           0.0955   -2.5569   -2.4079 H       1  UNL1        0.1538
     43 H          -1.6255   -2.3777   -4.4759 H       1  UNL1        0.0636
     44 H          -3.1690   -3.7410   -5.8558 H       1  UNL1        0.0626
     45 H          -1.9885   -8.1718   -5.9152 H       1  UNL1        0.1492
     46 H          -3.0999   -8.0488   -8.1882 H       1  UNL1        0.0515
     47 H          -4.5576   -8.4914   -7.2686 H       1  UNL1        0.0515
     48 H          -3.2215  -10.5815   -6.5265 H       1  UNL1        0.0830
     49 H          -1.9646  -10.1183   -7.7003 H       1  UNL1        0.0830
     50 H          -4.7858  -10.7560   -8.3597 H       1  UNL1        0.2034
     51 H          -4.1108  -10.9006  -10.6624 H       1  UNL1        0.0812
     52 H          -2.4856  -10.3284  -10.1930 H       1  UNL1        0.0812
     53 H          -5.1037   -8.7396   -9.8026 H       1  UNL1        0.0281
     54 H          -4.1484   -8.6687  -11.3047 H       1  UNL1        0.0281
     55 H          -3.4396   -8.0817   -9.8886 H       1  UNL1        0.0281
     56 H          -3.5681  -12.6262   -7.4826 H       1  UNL1        0.0812
     57 H          -2.3034  -12.3393   -8.7117 H       1  UNL1        0.0812
     58 H          -5.2464  -13.0510   -9.2929 H       1  UNL1        0.0281
     59 H          -3.8783  -14.1806   -9.4042 H       1  UNL1        0.0281
     60 H          -3.9849  -12.8523  -10.5261 H       1  UNL1        0.0281
     61 H          -1.0709   -7.3012   -4.5774 H       1  UNL1        0.0626
     62 H           0.2195   -6.0254   -3.0870 H       1  UNL1        0.0636
@<TRIPOS>UNITY_ATOM_ATTR
26 1
charge 1
@<TRIPOS>BOND
     1     1     2    1
     2     2     3    1
     3     3     4    1
     4     4     5   ar
     5     5     6   ar
     6     6     7   ar
     7     7     8    1
     8     7     9   ar
     9     9    10   ar
    10     4    10   ar
    11    10    11    1
    12    11    12    2
    13    11    13   am
    14    13    14    1
    15    14    15    2
    16    14    16    1
    17    16    17    1
    18    17    18   ar
    19    18    19   ar
    20    19    20   ar
    21    20    21    1
    22    21    22    2
    23    21    23   am
    24    23    24    1
    25    24    25    1
    26    25    26    1
    27    26    27    1
    28    27    28    1
    29    26    29    1
    30    29    30    1
    31    20    31   ar
    32    31    32   ar
    33    17    32   ar
    34     1    33    1
    35     1    34    1
    36     1    35    1
    37     2    36    1
    38     2    37    1
    39     5    38    1
    40     6    39    1
    41     9    40    1
    42    13    41    1
    43    16    42    1
    44    18    43    1
    45    19    44    1
    46    23    45    1
    47    24    46    1
    48    24    47    1
    49    25    48    1
    50    25    49    1
    51    26    50    1
    52    27    51    1
    53    27    52    1
    54    28    53    1
    55    28    54    1
    56    28    55    1
    57    29    56    1
    58    29    57    1
    59    30    58    1
    60    30    59    1
    61    30    60    1
    62    31    61    1
    63    32    62    1
