@<TRIPOS>MOLECULE
*****
 51 54 0 0 0
SMALL
GASTEIGER

@<TRIPOS>ATOM
      1 O           0.7921    0.7590   -0.4809 O.2     0  UNK0       -0.2749
      2 C           2.0016    0.6928   -0.4535 C.2     0  UNK0        0.2235
      3 C           2.7431   -0.4900   -0.2995 C.3     0  UNK0        0.0738
      4 S           1.7109   -1.9019   -0.0892 S.3     0  UNK0       -0.1035
      5 C           2.9463   -3.7135    1.4341 C.3     0  UNK0        0.1727
      6 N           3.2743   -5.3890    0.6040 N.3     0  UNK0       -0.2179
      7 N           2.7479   -6.3918    1.4959 N.3     0  UNK0       -0.2225
      8 C           3.0978   -5.7485    2.7495 C.3     0  UNK0        0.1506
      9 C           2.7010   -6.5411    3.9854 C.ar    0  UNK0       -0.0017
     10 C           2.9989   -7.9071    4.2126 C.ar    0  UNK0       -0.0547
     11 C           2.7079   -8.5028    5.4519 C.ar    0  UNK0       -0.0600
     12 C           2.1117   -7.7488    6.4632 C.ar    0  UNK0       -0.0434
     13 C           1.8064   -6.4124    6.2364 C.ar    0  UNK0        0.0414
     14 CL          1.0577   -5.4687    7.4604 Cl      0  UNK0       -0.0835
     15 C           2.1097   -5.8176    5.0219 C.ar    0  UNK0       -0.0364
     16 O           2.5325   -4.3095    2.7446 O.3     0  UNK0       -0.3280
     17 N           2.9554    1.6421   -0.5207 N.am    1  TRP1       -0.3064
     18 CA          4.4930    1.4598   -0.3695 C.3     1  TRP1        0.0666
     19 CB          5.1465    0.2263   -1.1449 C.3     1  TRP1       -0.0019
     20 CG          4.9787   -1.4272   -0.5053 C.ar    1  TRP1       -0.0203
     21 CD1         5.2327   -2.5220   -1.3277 C.ar    1  TRP1        0.0060
     22 NE1         4.4947   -3.6714   -0.9897 N.ar    1  TRP1       -0.3604
     23 CE2         3.2288   -3.3930   -0.4473 C.ar    1  TRP1        0.0467
     24 CZ2         1.4959   -4.0201    0.1836 C.ar    1  TRP1       -0.0378
     25 CH2         0.7438   -3.1275    1.5925 C.ar    1  TRP1       -0.0598
     26 CZ3         1.3209   -1.8147    2.2975 C.ar    1  TRP1       -0.0611
     27 CE3         2.8785   -1.3801    1.9239 C.ar    1  TRP1       -0.0523
     28 CD2         3.9705   -2.0808    0.6003 C.ar    1  TRP1        0.0029
     29 C           5.0990    2.8256   -0.7295 C.2     1  TRP1        0.0623
     30 O           4.2251    3.7269   -0.9357 O.co2   1  TRP1       -0.5479
     31 OXT         6.3531    2.8929   -0.7356 O.co2   1  TRP1       -0.5479
     32 H           3.5729   -0.1687    0.5005 H       0  UNK0        0.0472
     33 H           3.1535   -0.6957   -1.2742 H       0  UNK0        0.0472
     34 H           4.0659   -3.7269    1.5157 H       0  UNK0        0.0904
     35 H           2.8437   -5.4752   -0.3388 H       0  UNK0        0.1442
     36 H           3.2447   -7.2712    1.3212 H       0  UNK0        0.1437
     37 H           4.2050   -5.7376    2.7726 H       0  UNK0        0.0833
     38 H           3.4698   -8.5264    3.4495 H       0  UNK0        0.0622
     39 H           2.9473   -9.5488    5.6390 H       0  UNK0        0.0618
     40 H           1.8872   -8.1977    7.4257 H       0  UNK0        0.0632
     41 H           1.9001   -4.7627    4.8715 H       0  UNK0        0.0636
     42 H           2.6034    2.5862   -0.5904 H       1  TRP1        0.1494
     43 HA          4.7456    1.2879    0.6900 H       1  TRP1        0.0563
     44 HB1         6.2178    0.3633   -1.3041 H       1  TRP1        0.0335
     45 HB2         4.6953    0.2797   -2.1682 H       1  TRP1        0.0335
     46 HD1         5.9097   -2.5408   -2.1737 H       1  TRP1        0.0810
     47 HE1         4.8676   -4.6027   -1.0647 H       1  TRP1        0.1653
     48 HZ2         1.2258   -5.0204    0.5875 H       1  TRP1        0.0638
     49 HH2        -0.0496   -3.5379    2.1877 H       1  TRP1        0.0618
     50 HZ3         0.5712   -0.9101    2.1941 H       1  TRP1        0.0618
     51 HE3         2.6374   -0.2083    1.8896 H       1  TRP1        0.0624
@<TRIPOS>UNITY_ATOM_ATTR
31 1
charge -1
@<TRIPOS>BOND
     1     1     2    2
     2     2     3    1
     3     3     4    1
     4     4     5    1
     5     5     6    1
     6     6     7    1
     7     7     8    1
     8     9    10   ar
     9    10    11   ar
    10    11    12   ar
    11    12    13   ar
    12    13    14    1
    13    13    15   ar
    14     9    15   ar
    15     8    16    1
    16     5    16    1
    17     2    17   am
    18    17    18    1
    19    18    19    1
    20    19    20    1
    21    20    21   ar
    22    21    22   ar
    23    22    23   ar
    24    23    24   ar
    25    24    25   ar
    26    25    26   ar
    27    26    27   ar
    28    27    28   ar
    29    20    28   ar
    30    23    28   ar
    31    18    29    1
    32    29    30   ar
    33    29    31   ar
    34     8     9    1
    35     3    32    1
    36     3    33    1
    37     5    34    1
    38     6    35    1
    39     7    36    1
    40     8    37    1
    41    10    38    1
    42    11    39    1
    43    12    40    1
    44    15    41    1
    45    17    42    1
    46    18    43    1
    47    19    44    1
    48    19    45    1
    49    21    46    1
    50    22    47    1
    51    24    48    1
    52    25    49    1
    53    26    50    1
    54    27    51    1
