REMARK  5 active torsions:
REMARK  status: ('A' for Active; 'I' for Inactive)
REMARK    1  A    between atoms: O_2  and  C_3 
REMARK    2  A    between atoms: C_8  and  N_9 
REMARK       I    between atoms: N_9  and  C_10 
REMARK    3  A    between atoms: C_10  and  C_12 
REMARK    4  A    between atoms: C_16  and  N_17 
REMARK    5  A    between atoms: C_25  and  N_26 
ROOT
ATOM      1  C   UNL d   1      -0.502  -0.478  -2.708  0.00  0.00     0.102 C 
ATOM      2  S   UNL d   1      -1.793  -1.616  -2.875  0.00  0.00    -0.064 SA
ATOM      3  C   UNL d   1      -2.861  -0.446  -3.593  0.00  0.00     0.089 A 
ATOM      4  N   UNL d   1      -4.111  -0.658  -4.141  0.00  0.00    -0.336 N 
ATOM      5  C   UNL d   1      -4.792   0.313  -4.813  0.00  0.00     0.113 A 
ATOM      6  C   UNL d   1      -4.209   1.602  -4.863  0.00  0.00     0.017 A 
ATOM      7  C   UNL d   1      -2.950   1.834  -4.265  0.00  0.00    -0.028 A 
ATOM      8  C   UNL d   1      -2.266   0.798  -3.611  0.00  0.00     0.033 A 
ATOM      9  C   UNL d   1      -0.993   0.787  -2.973  0.00  0.00     0.062 C 
ATOM     10  C   UNL d   1      -2.284   3.177  -4.376  0.00  0.00     0.077 C 
ATOM     11  C   UNL d   1      -2.825   4.045  -5.482  0.00  0.00     0.058 C 
ATOM     12  C   UNL d   1      -2.337   3.527  -6.846  0.00  0.00     0.046 C 
ATOM     13  C   UNL d   1      -2.259   5.455  -5.269  0.00  0.00     0.046 C 
ATOM     14  O   UNL d   1      -4.247   4.050  -5.346  0.00  0.00    -0.376 OA
ATOM     15  C   UNL d   1      -4.845   2.769  -5.600  0.00  0.00     0.212 C 
ATOM     16  H   UNL d   1      -4.521  -1.586  -4.126  0.00  0.00     0.168 HD
ENDROOT
BRANCH   1  17
ATOM     17  C   UNL d   1       0.904  -0.663  -2.275  0.00  0.00     0.265 C 
ATOM     18  N   UNL d   1       1.405  -1.891  -1.901  0.00  0.00    -0.320 N 
ATOM     19  H   UNL d   1       1.126  -2.686  -2.460  0.00  0.00     0.169 HD
ATOM     20  O   UNL d   1       1.649   0.336  -2.218  0.00  0.00    -0.267 OA
BRANCH  18  21
ATOM     21  C   UNL d   1       2.579  -2.034  -1.079  0.00  0.00     0.068 A 
ATOM     22  C   UNL d   1       3.371  -3.179  -1.290  0.00  0.00     0.032 A 
ATOM     23  C   UNL d   1       4.559  -3.399  -0.570  0.00  0.00     0.002 A 
ATOM     24  C   UNL d   1       4.989  -2.472   0.370  0.00  0.00     0.003 A 
ATOM     25  C   UNL d   1       4.196  -1.359   0.634  0.00  0.00     0.039 A 
ATOM     26  C   UNL d   1       2.990  -1.134  -0.065  0.00  0.00     0.095 A 
BRANCH  26  27
ATOM     27  O   UNL d   1       2.385   0.033   0.319  0.00  0.00    -0.354 OA
ATOM     28  C   UNL d   1       0.994   0.018   0.594  0.00  0.00     0.210 C 
ENDBRANCH  26  27
ENDBRANCH  18  21
ENDBRANCH   1  17
BRANCH   9  29
ATOM     29  N   UNL d   1      -0.250   1.889  -2.721  0.00  0.00    -0.397 N 
ATOM     30  H   UNL d   1      -0.429   2.850  -2.969  0.00  0.00     0.156 HD
ATOM     31  H   UNL d   1       0.714   1.790  -2.368  0.00  0.00     0.156 HD
ENDBRANCH   9  29
BRANCH   5  32
ATOM     32  N   UNL d   1      -5.944  -0.069  -5.476  0.00  0.00    -0.367 N 
ATOM     33  C   UNL d   1      -6.257   0.296  -6.874  0.00  0.00     0.124 C 
ATOM     34  C   UNL d   1      -7.655   0.906  -6.835  0.00  0.00     0.021 C 
ATOM     35  C   UNL d   1      -8.339   0.080  -5.763  0.00  0.00     0.021 C 
ATOM     36  C   UNL d   1      -7.223  -0.262  -4.755  0.00  0.00     0.124 C 
ENDBRANCH   5  32
TORSDOF 5
