@<TRIPOS>MOLECULE
*****
 87 89 0 0 0
SMALL
GASTEIGER

@<TRIPOS>ATOM
      1 C           9.0611  -10.3560    2.3919 C.3     1  UNL1       -0.0567
      2 C           7.9675  -11.4006    2.1281 C.3     1  UNL1        0.0021
      3 C           8.5769  -12.7261    1.7113 C.3     1  UNL1       -0.0567
      4 C           7.0147  -11.5355    3.3024 C.ar    1  UNL1        0.0812
      5 N           6.0336  -10.6933    3.4584 N.ar    1  UNL1       -0.2471
      6 C           5.3811  -10.7679    4.6671 C.ar    1  UNL1        0.0660
      7 C           4.4023   -9.6779    5.0767 C.3     1  UNL1        0.0585
      8 N           4.3707   -8.4845    4.2008 N.am    1  UNL1       -0.2829
      9 C           5.5294   -8.1760    3.3710 C.3     1  UNL1        0.0050
     10 C           3.3703   -7.5514    4.4545 C.2     1  UNL1        0.3029
     11 O           2.6191   -7.6052    5.4295 O.2     1  UNL1       -0.2526
     12 N           3.1404   -6.5586    3.5516 N.am    1  UNL1       -0.2877
     13 C           3.7635   -6.2992    2.2625 C.3     1  UNL1        0.1031
     14 C           3.6806   -4.8087    2.0289 C.2     1  UNL1        0.2339
     15 O           3.9446   -4.1048    2.9554 O.2     1  UNL1       -0.2738
     16 N           3.3591   -4.4025    0.7542 N.am    1  UNL1       -0.3105
     17 C           3.3989   -3.0367    0.2580 C.3     1  UNL1        0.0297
     18 C           4.8344   -2.5442   -0.0475 C.3     1  UNL1       -0.0091
     19 C           5.7595   -2.4688    1.1357 C.ar    1  UNL1       -0.0456
     20 C           5.3142   -2.1020    2.4121 C.ar    1  UNL1       -0.0585
     21 C           6.0923   -2.3778    3.5382 C.ar    1  UNL1       -0.0615
     22 C           7.3752   -2.8796    3.3819 C.ar    1  UNL1       -0.0617
     23 C           7.8911   -3.0691    2.1022 C.ar    1  UNL1       -0.0615
     24 C           7.0829   -2.8826    0.9827 C.ar    1  UNL1       -0.0585
     25 C           2.6064   -2.9647   -1.0553 C.3     1  UNL1       -0.0028
     26 C           1.1407   -3.3526   -0.8724 C.3     1  UNL1        0.0995
     27 O           0.9888   -4.7279   -0.4750 O.3     1  UNL1       -0.3862
     28 C           0.3383   -3.2055   -2.1684 C.3     1  UNL1        0.0062
     29 N          -1.0431   -3.6991   -1.8442 N.4     1  UNL1        0.2228
     30 C           0.3358   -1.7696   -2.6818 C.3     1  UNL1        0.0178
     31 C          -0.4861   -1.5741   -3.9177 C.ar    1  UNL1       -0.0420
     32 C           0.1258   -1.2200   -5.1242 C.ar    1  UNL1       -0.0584
     33 C          -0.6661   -0.8303   -6.1997 C.ar    1  UNL1       -0.0615
     34 C          -2.0555   -0.9252   -6.1201 C.ar    1  UNL1       -0.0617
     35 C          -2.6643   -1.3588   -4.9503 C.ar    1  UNL1       -0.0615
     36 C          -1.8834   -1.6317   -3.8414 C.ar    1  UNL1       -0.0584
     37 C           3.3344   -7.2561    1.1160 C.3     1  UNL1       -0.0197
     38 C           4.3641   -7.1578   -0.0283 C.3     1  UNL1       -0.0605
     39 C           3.1234   -8.7479    1.4762 C.3     1  UNL1       -0.0605
     40 C           5.7119  -11.9310    5.3298 C.ar    1  UNL1        0.0002
     41 S           6.9981  -12.7529    4.5052 S.2     1  UNL1       -0.0800
     42 H           9.7417  -10.2693    1.5342 H       1  UNL1        0.0236
     43 H           9.6582  -10.6216    3.2691 H       1  UNL1        0.0236
     44 H           8.6380   -9.3586    2.5639 H       1  UNL1        0.0236
     45 H           7.3850  -11.0215    1.2717 H       1  UNL1        0.0364
     46 H           9.1684  -13.1489    2.5282 H       1  UNL1        0.0236
     47 H           9.2353  -12.6092    0.8448 H       1  UNL1        0.0236
     48 H           7.7877  -13.4368    1.4459 H       1  UNL1        0.0236
     49 H           4.6159   -9.3372    6.0973 H       1  UNL1        0.0530
     50 H           3.3884  -10.1026    5.0839 H       1  UNL1        0.0530
     51 H           6.0946   -8.9429    2.8897 H       1  UNL1        0.0429
     52 H           6.1735   -7.4073    3.7831 H       1  UNL1        0.0429
     53 H           5.1749   -7.8933    2.4110 H       1  UNL1        0.0429
     54 H           2.5427   -5.8229    3.9190 H       1  UNL1        0.1510
     55 H           4.8434   -6.2700    2.4162 H       1  UNL1        0.0598
     56 H           2.7542   -5.0390    0.2680 H       1  UNL1        0.1490
     57 H           2.9132   -2.3891    0.9933 H       1  UNL1        0.0502
     58 H           4.8029   -1.5526   -0.5132 H       1  UNL1        0.0331
     59 H           5.2643   -3.2278   -0.7971 H       1  UNL1        0.0331
     60 H           4.2665   -1.8587    2.5935 H       1  UNL1        0.0620
     61 H           5.6350   -2.3316    4.5258 H       1  UNL1        0.0618
     62 H           7.9527   -3.1594    4.2571 H       1  UNL1        0.0618
     63 H           8.9098   -3.4184    1.9767 H       1  UNL1        0.0618
     64 H           7.4704   -3.1282   -0.0022 H       1  UNL1        0.0620
     65 H           3.0584   -3.6144   -1.8169 H       1  UNL1        0.0310
     66 H           2.6810   -1.9346   -1.4188 H       1  UNL1        0.0310
     67 H           0.6977   -2.7306   -0.0825 H       1  UNL1        0.0651
     68 H           1.4472   -5.3024   -1.1193 H       1  UNL1        0.2100
     69 H           0.7128   -3.9046   -2.9262 H       1  UNL1        0.0879
     70 H          -1.5220   -3.0812   -1.1762 H       1  UNL1        0.1998
     71 H          -0.9895   -4.6238   -1.3889 H       1  UNL1        0.1998
     72 H          -1.6159   -3.8014   -2.6909 H       1  UNL1        0.1998
     73 H           1.3613   -1.4517   -2.9053 H       1  UNL1        0.0369
     74 H          -0.0263   -1.0823   -1.9077 H       1  UNL1        0.0369
     75 H           1.2100   -1.1770   -5.2279 H       1  UNL1        0.0620
     76 H          -0.2038   -0.4157   -7.0926 H       1  UNL1        0.0618
     77 H          -2.6705   -0.6291   -6.9649 H       1  UNL1        0.0618
     78 H          -3.7465   -1.4187   -4.8759 H       1  UNL1        0.0618
     79 H          -2.3992   -1.8375   -2.9102 H       1  UNL1        0.0620
     80 H           2.3529   -6.9232    0.7673 H       1  UNL1        0.0318
     81 H           5.3700   -7.4451    0.3009 H       1  UNL1        0.0233
     82 H           4.4651   -6.1446   -0.4229 H       1  UNL1        0.0233
     83 H           4.0757   -7.7985   -0.8622 H       1  UNL1        0.0233
     84 H           4.0498   -9.3163    1.6151 H       1  UNL1        0.0233
     85 H           2.6069   -9.2681    0.6674 H       1  UNL1        0.0233
     86 H           2.5107   -8.8658    2.3739 H       1  UNL1        0.0233
     87 H           5.2979  -12.3238    6.2446 H       1  UNL1        0.0712
@<TRIPOS>UNITY_ATOM_ATTR
29 1
charge 1
@<TRIPOS>BOND
     1     1     2    1
     2     2     3    1
     3     2     4    1
     4     4     5   ar
     5     5     6   ar
     6     6     7    1
     7     7     8    1
     8     8     9    1
     9     8    10   am
    10    10    11    2
    11    10    12   am
    12    14    15    2
    13    14    16   am
    14    16    17    1
    15    17    18    1
    16    18    19    1
    17    19    20   ar
    18    20    21   ar
    19    21    22   ar
    20    22    23   ar
    21    23    24   ar
    22    19    24   ar
    23    17    25    1
    24    26    28    1
    25    28    29    1
    26    28    30    1
    27    30    31    1
    28    31    32   ar
    29    32    33   ar
    30    33    34   ar
    31    34    35   ar
    32    35    36   ar
    33    31    36   ar
    34    13    37    1
    35    37    38    1
    36    37    39    1
    37     6    40   ar
    38    40    41   ar
    39     4    41   ar
    40    13    14    1
    41    13    12    1
    42    26    27    1
    43    26    25    1
    44     1    42    1
    45     1    43    1
    46     1    44    1
    47     2    45    1
    48     3    46    1
    49     3    47    1
    50     3    48    1
    51     7    49    1
    52     7    50    1
    53     9    51    1
    54     9    52    1
    55     9    53    1
    56    12    54    1
    57    13    55    1
    58    16    56    1
    59    17    57    1
    60    18    58    1
    61    18    59    1
    62    20    60    1
    63    21    61    1
    64    22    62    1
    65    23    63    1
    66    24    64    1
    67    25    65    1
    68    25    66    1
    69    26    67    1
    70    27    68    1
    71    28    69    1
    72    29    70    1
    73    29    71    1
    74    29    72    1
    75    30    73    1
    76    30    74    1
    77    32    75    1
    78    33    76    1
    79    34    77    1
    80    35    78    1
    81    36    79    1
    82    37    80    1
    83    38    81    1
    84    38    82    1
    85    38    83    1
    86    39    84    1
    87    39    85    1
    88    39    86    1
    89    40    87    1
