REMARK  11 active torsions:
REMARK  status: ('A' for Active; 'I' for Inactive)
REMARK    1  A    between atoms: C_2  and  O_3 
REMARK    2  A    between atoms: O_3  and  C_4 
REMARK    3  A    between atoms: C_10  and  C_11 
REMARK       I    between atoms: C_11  and  N_13 
REMARK    4  A    between atoms: N_13  and  C_14 
REMARK    5  A    between atoms: C_14  and  C_15 
REMARK    6  A    between atoms: C_15  and  C_16 
REMARK    7  A    between atoms: C_19  and  O_20 
REMARK    8  A    between atoms: C_22  and  O_23 
REMARK    9  A    between atoms: C_26  and  N_27 
REMARK   10  A    between atoms: N_27  and  N_28 
REMARK       I    between atoms: N_28  and  C_29 
REMARK   11  A    between atoms: C_29  and  C_31 
ROOT
ATOM      1  C   UNL d   1       4.356  -1.496   0.054  0.00  0.00     0.103 C 
ATOM      2  C   UNL d   1       5.204  -0.797   0.904  0.00  0.00     0.040 C 
ATOM      3  C   UNL d   1       6.551  -1.159   1.000  0.00  0.00     0.004 C 
ATOM      4  C   UNL d   1       7.023  -2.302   0.354  0.00  0.00     0.014 C 
ATOM      5  C   UNL d   1       6.221  -2.936  -0.590  0.00  0.00     0.002 A 
ATOM      6  C   UNL d   1       6.743  -3.973  -1.475  0.00  0.00     0.035 A 
ATOM      7  C   UNL d   1       5.997  -4.476  -2.478  0.00  0.00     0.085 A 
ATOM      8  C   UNL d   1       4.625  -3.957  -2.597  0.00  0.00     0.178 A 
ATOM      9  O   UNL d   1       4.081  -3.052  -1.735  0.00  0.00    -0.288 OA
ATOM     10  C   UNL d   1       4.902  -2.510  -0.735  0.00  0.00     0.121 A 
ENDROOT
BRANCH   7  11
ATOM     11  C   UNL d   1       6.663  -5.501  -3.376  0.00  0.00     0.256 C 
ATOM     12  O   UNL d   1       7.829  -5.829  -3.172  0.00  0.00    -0.268 OA
ATOM     13  N   UNL d   1       5.958  -6.060  -4.421  0.00  0.00    -0.356 N 
ATOM     14  H   UNL d   1       5.026  -5.987  -4.736  0.00  0.00     0.162 HD
BRANCH  13  15
ATOM     15  C   UNL d   1       6.522  -7.064  -5.301  0.00  0.00     0.127 C 
BRANCH  15  16
ATOM     16  C   UNL d   1       5.439  -7.449  -6.316  0.00  0.00     0.058 C 
BRANCH  16  17
ATOM     17  C   UNL d   1       5.892  -8.516  -7.244  0.00  0.00    -0.054 C 
ATOM     18  C   UNL d   1       6.421  -8.198  -8.489  0.00  0.00     0.010 C 
ATOM     19  C   UNL d   1       6.739  -9.218  -9.376  0.00  0.00     0.040 C 
ATOM     20  C   UNL d   1       6.410 -10.547  -9.075  0.00  0.00     0.101 C 
ATOM     21  C   UNL d   1       5.912 -10.867  -7.798  0.00  0.00     0.102 C 
ATOM     22  C   UNL d   1       5.745  -9.850  -6.863  0.00  0.00     0.046 C 
BRANCH  20  23
ATOM     23  O   UNL d   1       6.528 -11.580  -9.970  0.00  0.00    -0.353 OA
ATOM     24  C   UNL d   1       6.978 -11.245 -11.277  0.00  0.00     0.210 C 
ENDBRANCH  20  23
BRANCH  21  25
ATOM     25  O   UNL d   1       5.585 -12.177  -7.548  0.00  0.00    -0.353 OA
ATOM     26  C   UNL d   1       5.018 -12.466  -6.273  0.00  0.00     0.210 C 
ENDBRANCH  21  25
ENDBRANCH  16  17
ENDBRANCH  15  16
ENDBRANCH  13  15
ENDBRANCH   7  11
BRANCH   8  27
ATOM     27  N   UNL d   1       3.813  -4.307  -3.504  0.00  0.00    -0.276 N 
ATOM     28  H   UNL d   1       4.142  -4.983  -4.165  0.00  0.00     0.189 HD
BRANCH  27  29
ATOM     29  N   UNL d   1       2.517  -3.930  -3.761  0.00  0.00    -0.263 N 
ATOM     30  C   UNL d   1       1.907  -4.609  -4.810  0.00  0.00     0.277 C 
ATOM     31  O   UNL d   1       2.551  -5.474  -5.423  0.00  0.00    -0.265 OA
ATOM     32  H   UNL d   1       2.051  -3.264  -3.155  0.00  0.00     0.190 HD
BRANCH  30  33
ATOM     33  C   UNL d   1       0.549  -4.213  -5.047  0.00  0.00     0.074 A 
ATOM     34  C   UNL d   1       0.051  -2.929  -5.117  0.00  0.00     0.025 A 
ATOM     35  C   UNL d   1      -1.366  -2.913  -5.220  0.00  0.00     0.009 A 
ATOM     36  C   UNL d   1      -1.896  -4.184  -5.260  0.00  0.00     0.050 A 
ATOM     37  S   UNL d   1      -0.677  -5.387  -5.216  0.00  0.00    -0.097 SA
ENDBRANCH  30  33
ENDBRANCH  27  29
ENDBRANCH   8  27
BRANCH   1  38
ATOM     38  O   UNL d   1       3.006  -1.306  -0.041  0.00  0.00    -0.349 OA
BRANCH  38  39
ATOM     39  C   UNL d   1       2.568   0.048   0.068  0.00  0.00     0.171 C 
ATOM     40  C   UNL d   1       1.051   0.048   0.070  0.00  0.00     0.034 C 
ENDBRANCH  38  39
ENDBRANCH   1  38
TORSDOF 11
