REMARK  6 active torsions:
REMARK  status: ('A' for Active; 'I' for Inactive)
REMARK    1  A    between atoms: O_2  and  C_3 
REMARK    2  A    between atoms: C_3  and  C_4 
REMARK    3  A    between atoms: C_3  and  C_26 
REMARK       I    between atoms: C_4  and  N_6 
REMARK    4  A    between atoms: N_6  and  C_7 
REMARK    5  A    between atoms: N_11  and  C_12 
REMARK    6  A    between atoms: C_15  and  C_16 
ROOT
ATOM      1  C   UNL d   1       0.367   3.918  -1.030  0.00  0.00     0.043 A 
ATOM      2  C   UNL d   1      -0.698   4.163  -0.123  0.00  0.00     0.066 A 
ATOM      3  C   UNL d   1      -1.134   5.517  -0.069  0.00  0.00     0.111 A 
ATOM      4  N   UNL d   1      -2.045   6.119   0.722  0.00  0.00    -0.147 NA
ATOM      5  N   UNL d   1      -2.102   7.381   0.215  0.00  0.00    -0.150 N 
ATOM      6  N   UNL d   1      -1.254   7.681  -0.786  0.00  0.00    -0.147 NA
ATOM      7  C   UNL d   1      -0.573   6.542  -0.946  0.00  0.00     0.110 A 
ATOM      8  C   UNL d   1       0.480   6.287  -1.824  0.00  0.00     0.045 A 
ATOM      9  C   UNL d   1       0.914   4.949  -1.859  0.00  0.00    -0.033 A 
ATOM     10  C   UNL d   1       2.000   4.630  -2.839  0.00  0.00     0.050 C 
ENDROOT
BRANCH   1  11
ATOM     11  N   UNL d   1       0.901   2.603  -1.189  0.00  0.00    -0.324 N 
ATOM     12  C   UNL d   1       2.236   2.319  -0.833  0.00  0.00     0.255 C 
ATOM     13  O   UNL d   1       2.947   3.164  -0.268  0.00  0.00    -0.270 OA
ATOM     14  H   UNL d   1       0.228   1.849  -1.194  0.00  0.00     0.169 HD
BRANCH  12  15
ATOM     15  C   UNL d   1       2.768   0.865  -1.119  0.00  0.00     0.247 C 
BRANCH  15  16
ATOM     16  O   UNL d   1       2.319  -0.006  -0.052  0.00  0.00    -0.377 OA
ATOM     17  C   UNL d   1       0.913  -0.113   0.093  0.00  0.00     0.203 C 
ENDBRANCH  15  16
BRANCH  15  18
ATOM     18  C   UNL d   1       4.322   0.789  -1.170  0.00  0.00     0.001 C 
ATOM     19  C   UNL d   1       5.005  -0.250  -0.500  0.00  0.00     0.012 C 
ATOM     20  C   UNL d   1       6.394  -0.213  -0.299  0.00  0.00     0.001 C 
ATOM     21  C   UNL d   1       7.154   0.824  -0.824  0.00  0.00     0.002 C 
ATOM     22  C   UNL d   1       6.534   1.760  -1.635  0.00  0.00     0.024 C 
ATOM     23  C   UNL d   1       5.145   1.721  -1.835  0.00  0.00     0.043 C 
ATOM     24 CL   UNL d   1       4.584   2.783  -3.060  0.00  0.00    -0.084 Cl
ENDBRANCH  15  18
ENDBRANCH  12  15
ENDBRANCH   1  11
BRANCH   5  25
ATOM     25  C   UNL d   1      -2.938   8.387   0.752  0.00  0.00     0.079 A 
ATOM     26  C   UNL d   1      -3.681   9.224  -0.091  0.00  0.00     0.034 A 
ATOM     27  C   UNL d   1      -4.389  10.308   0.446  0.00  0.00     0.010 A 
ATOM     28  C   UNL d   1      -4.398  10.546   1.831  0.00  0.00    -0.055 A 
ATOM     29  C   UNL d   1      -3.707   9.640   2.656  0.00  0.00     0.010 A 
ATOM     30  C   UNL d   1      -2.957   8.589   2.128  0.00  0.00     0.034 A 
BRANCH  28  31
ATOM     31  C   UNL d   1      -5.093  11.784   2.393  0.00  0.00     0.010 C 
ATOM     32  C   UNL d   1      -6.582  11.818   2.034  0.00  0.00     0.015 C 
ATOM     33  C   UNL d   1      -4.943  11.924   3.914  0.00  0.00     0.015 C 
ENDBRANCH  28  31
ENDBRANCH   5  25
TORSDOF 6
