@<TRIPOS>MOLECULE
*****
 71 72 0 0 0
SMALL
GASTEIGER

@<TRIPOS>ATOM
      1 C           0.9505   -0.1065   -0.0738 C.3     1  UNL1       -0.0653
      2 C           2.4595   -0.1317   -0.0987 C.3     1  UNL1       -0.0559
      3 C           3.0224    0.8837    0.8611 C.3     1  UNL1       -0.0533
      4 C           4.5453    0.8322    0.7717 C.3     1  UNL1       -0.0516
      5 C           5.0334    1.8897    1.7032 C.3     1  UNL1       -0.0371
      6 C           6.5060    2.1431    1.7535 C.3     1  UNL1        0.0158
      7 N           6.9866    2.9834    2.9038 N.am    1  UNL1       -0.2859
      8 C           6.2034    3.8610    3.6941 C.2     1  UNL1        0.2164
      9 O           6.7227    4.6626    4.4745 O.2     1  UNL1       -0.2756
     10 C           4.6760    3.7841    3.6289 C.3     1  UNL1        0.0239
     11 C           3.8397    4.6888    4.5061 C.3     1  UNL1       -0.0476
     12 C           2.3562    4.4079    4.2392 C.3     1  UNL1       -0.0648
     13 C           8.4881    3.1356    3.0369 C.3     1  UNL1        0.1274
     14 C           9.0574    3.9741    1.7994 C.2     1  UNL1        0.2393
     15 O           8.3589    4.3553    0.8574 O.2     1  UNL1       -0.2734
     16 N          10.4003    4.2902    1.8033 N.am    1  UNL1       -0.2943
     17 C          11.0763    4.9861    0.6954 C.3     1  UNL1        0.1356
     18 S          12.8665    5.2006    0.9202 S.O2    1  UNL1        0.0129
     19 O          13.0648    6.0679    2.0767 O.2     1  UNL1       -0.1678
     20 O          13.4835    3.8923    0.8973 O.2     1  UNL1       -0.1678
     21 C          13.4102    6.0980   -0.5155 C.ar    1  UNL1        0.0899
     22 C          13.2552    7.4850   -0.5489 C.ar    1  UNL1       -0.0366
     23 C          13.6288    8.1962   -1.6913 C.ar    1  UNL1       -0.0570
     24 C          14.1816    7.5347   -2.7952 C.ar    1  UNL1       -0.0503
     25 C          14.5356    8.2973   -4.0409 C.3     1  UNL1       -0.0397
     26 C          14.3922    6.1500   -2.7242 C.ar    1  UNL1       -0.0570
     27 C          14.0183    5.4296   -1.5827 C.ar    1  UNL1       -0.0366
     28 C           9.2135    1.7813    3.2557 C.ar    1  UNL1       -0.0178
     29 C          10.6045    1.6800    3.4141 C.ar    1  UNL1       -0.0499
     30 C          11.2482    0.4356    3.4500 C.ar    1  UNL1        0.0159
     31 C          10.4983   -0.7346    3.3208 C.ar    1  UNL1        0.2732
     32 N          11.1415   -2.0455    3.3641 N.pl3   1  UNL1        0.0796
     33 O          12.3683   -2.0788    3.5267 O.2     1  UNL1        0.0414
     34 O          10.4165   -3.0447    3.2499 O.co2   1  UNL1       -0.5760
     35 C           9.1155   -0.6694    3.2549 C.ar    1  UNL1        0.0159
     36 C           8.5024    0.5730    3.3481 C.ar    1  UNL1       -0.0499
     37 H           0.5629   -0.8441   -0.7789 H       1  UNL1        0.0230
     38 H           0.5752    0.8821   -0.3569 H       1  UNL1        0.0230
     39 H           0.5756   -0.3435    0.9268 H       1  UNL1        0.0230
     40 H           2.8229    0.0934   -1.1070 H       1  UNL1        0.0263
     41 H           2.8269   -1.1260    0.1763 H       1  UNL1        0.0263
     42 H           2.6842    0.6809    1.8887 H       1  UNL1        0.0265
     43 H           2.6561    1.8917    0.6160 H       1  UNL1        0.0265
     44 H           4.8952    1.0445   -0.2408 H       1  UNL1        0.0266
     45 H           4.9186   -0.1474    1.0874 H       1  UNL1        0.0266
     46 H           4.7056    1.5382    2.6814 H       1  UNL1        0.0280
     47 H           4.5570    2.8064    1.3654 H       1  UNL1        0.0280
     48 H           6.8744    2.5463    0.8111 H       1  UNL1        0.0465
     49 H           6.9364    1.1470    1.7853 H       1  UNL1        0.0465
     50 H           4.3715    2.7820    3.9348 H       1  UNL1        0.0358
     51 H           4.3688    4.0614    2.6226 H       1  UNL1        0.0358
     52 H           4.0697    5.7312    4.2739 H       1  UNL1        0.0267
     53 H           4.0728    4.4977    5.5564 H       1  UNL1        0.0267
     54 H           2.0964    4.5841    3.1876 H       1  UNL1        0.0230
     55 H           1.7306    5.0545    4.8577 H       1  UNL1        0.0230
     56 H           2.0974    3.3650    4.4628 H       1  UNL1        0.0230
     57 H           8.7042    3.7363    3.9294 H       1  UNL1        0.0648
     58 H          10.9656    4.1424    2.6242 H       1  UNL1        0.1503
     59 H          10.6249    5.9763    0.5880 H       1  UNL1        0.0710
     60 H          10.9223    4.4085   -0.2215 H       1  UNL1        0.0710
     61 H          12.8466    8.0237    0.3034 H       1  UNL1        0.0637
     62 H          13.4795    9.2739   -1.7177 H       1  UNL1        0.0621
     63 H          14.3193    9.3657   -3.9295 H       1  UNL1        0.0278
     64 H          13.9480    7.9288   -4.8884 H       1  UNL1        0.0278
     65 H          15.6012    8.1949   -4.2680 H       1  UNL1        0.0278
     66 H          14.8436    5.6248   -3.5650 H       1  UNL1        0.0621
     67 H          14.2057    4.3584   -1.5444 H       1  UNL1        0.0637
     68 H          11.2351    2.5496    3.5560 H       1  UNL1        0.0623
     69 H          12.3272    0.4057    3.5853 H       1  UNL1        0.0685
     70 H           8.4921   -1.5562    3.1701 H       1  UNL1        0.0685
     71 H           7.4257    0.5578    3.4873 H       1  UNL1        0.0623
@<TRIPOS>UNITY_ATOM_ATTR
32 1
charge 1
34 1
charge -1
@<TRIPOS>BOND
     1     1     2    1
     2     2     3    1
     3     3     4    1
     4     4     5    1
     5     5     6    1
     6     6     7    1
     7     7     8   am
     8     8     9    2
     9     8    10    1
    10    10    11    1
    11    11    12    1
    12     7    13    1
    13    13    14    1
    14    14    15    2
    15    14    16   am
    16    16    17    1
    17    17    18    1
    18    18    19    2
    19    18    20    2
    20    18    21    1
    21    21    22   ar
    22    22    23   ar
    23    23    24   ar
    24    24    25    1
    25    24    26   ar
    26    26    27   ar
    27    21    27   ar
    28    13    28    1
    29    28    29   ar
    30    29    30   ar
    31    30    31   ar
    32    31    32    1
    33    32    33    2
    34    32    34    1
    35    31    35   ar
    36    35    36   ar
    37    28    36   ar
    38     1    37    1
    39     1    38    1
    40     1    39    1
    41     2    40    1
    42     2    41    1
    43     3    42    1
    44     3    43    1
    45     4    44    1
    46     4    45    1
    47     5    46    1
    48     5    47    1
    49     6    48    1
    50     6    49    1
    51    10    50    1
    52    10    51    1
    53    11    52    1
    54    11    53    1
    55    12    54    1
    56    12    55    1
    57    12    56    1
    58    13    57    1
    59    16    58    1
    60    17    59    1
    61    17    60    1
    62    22    61    1
    63    23    62    1
    64    25    63    1
    65    25    64    1
    66    25    65    1
    67    26    66    1
    68    27    67    1
    69    29    68    1
    70    30    69    1
    71    35    70    1
    72    36    71    1
