@<TRIPOS>MOLECULE
*****
 48 50 0 0 0
SMALL
GASTEIGER

@<TRIPOS>ATOM
      1 O           0.9687    0.1473   -0.1190 O.2     1  UNL1       -0.2683
      2 C           2.1995    0.0683   -0.0837 C.2     1  UNL1        0.2668
      3 N           2.9395   -0.8821   -0.7958 N.am    1  UNL1       -0.2029
      4 N           2.2488   -1.8180   -1.5206 N.2     1  UNL1       -0.1875
      5 C           2.8870   -2.7669   -2.1236 C.2     1  UNL1        0.0528
      6 C           2.1288   -3.7428   -2.9511 C.ar    1  UNL1       -0.0049
      7 C           2.4587   -5.1010   -3.0030 C.ar    1  UNL1       -0.0531
      8 C           1.7353   -5.9570   -3.8506 C.ar    1  UNL1       -0.0606
      9 C           0.6648   -5.4673   -4.6155 C.ar    1  UNL1       -0.0531
     10 C           0.3474   -4.1061   -4.5680 C.ar    1  UNL1       -0.0049
     11 C          -0.7244   -3.5338   -5.4276 C.2     1  UNL1        0.0528
     12 N          -0.9333   -2.2571   -5.4326 N.2     1  UNL1       -0.1875
     13 N          -1.9180   -1.7483   -6.2295 N.am    1  UNL1       -0.2029
     14 C          -2.1437   -0.3759   -6.2192 C.2     1  UNL1        0.2668
     15 O          -1.4897    0.4471   -5.5736 O.2     1  UNL1       -0.2683
     16 C          -3.2412    0.1422   -7.0810 C.ar    1  UNL1        0.0797
     17 C          -3.0342    1.3610   -7.7518 C.ar    1  UNL1       -0.0460
     18 C          -4.0740    1.9725   -8.4583 C.ar    1  UNL1       -0.0608
     19 C          -5.3182    1.3511   -8.5354 C.ar    1  UNL1       -0.0583
     20 C          -5.5330    0.1347   -7.8812 C.ar    1  UNL1       -0.0194
     21 C          -4.4951   -0.4705   -7.1615 C.ar    1  UNL1        0.1290
     22 O          -4.7146   -1.6654   -6.5336 O.3     1  UNL1       -0.5060
     23 C           1.0775   -3.2533   -3.7319 C.ar    1  UNL1       -0.0444
     24 C           2.9704    0.9975    0.7998 C.ar    1  UNL1        0.0797
     25 C           4.1678    1.5933    0.3723 C.ar    1  UNL1       -0.0460
     26 C           4.9401    2.3458    1.2698 C.ar    1  UNL1       -0.0608
     27 C           4.4843    2.5810    2.5675 C.ar    1  UNL1       -0.0583
     28 C           3.2600    2.0574    2.9786 C.ar    1  UNL1       -0.0194
     29 C           2.5109    1.2687    2.1002 C.ar    1  UNL1        0.1290
     30 O           1.3393    0.7238    2.5458 O.3     1  UNL1       -0.5060
     31 H           3.9481   -0.9363   -0.7305 H       1  UNL1        0.1776
     32 H           3.9841   -2.8819   -2.0809 H       1  UNL1        0.0851
     33 H           3.2446   -5.5139   -2.3750 H       1  UNL1        0.0624
     34 H           2.0080   -7.0099   -3.9208 H       1  UNL1        0.0618
     35 H           0.0976   -6.1545   -5.2391 H       1  UNL1        0.0624
     36 H          -1.3006   -4.2327   -6.0591 H       1  UNL1        0.0851
     37 H          -2.5277   -2.3640   -6.7562 H       1  UNL1        0.1776
     38 H          -2.0577    1.8421   -7.7152 H       1  UNL1        0.0626
     39 H          -3.9186    2.9413   -8.9291 H       1  UNL1        0.0618
     40 H          -6.1205    1.8176   -9.1038 H       1  UNL1        0.0619
     41 H          -6.5208   -0.3143   -7.9324 H       1  UNL1        0.0654
     42 H          -5.6555   -1.8969   -6.6108 H       1  UNL1        0.2922
     43 H           0.8385   -2.1909   -3.6965 H       1  UNL1        0.0630
     44 H           4.5003    1.4999   -0.6581 H       1  UNL1        0.0626
     45 H           5.9043    2.7466    0.9630 H       1  UNL1        0.0618
     46 H           5.0789    3.1766    3.2576 H       1  UNL1        0.0619
     47 H           2.9181    2.2430    3.9930 H       1  UNL1        0.0654
     48 H           1.0785    1.1154    3.3924 H       1  UNL1        0.2922
@<TRIPOS>BOND
     1     1     2    2
     2     2     3   am
     3     3     4    1
     4     4     5    2
     5     5     6    1
     6     6     7   ar
     7     7     8   ar
     8     8     9   ar
     9     9    10   ar
    10    10    11    1
    11    11    12    2
    12    12    13    1
    13    13    14   am
    14    14    15    2
    15    14    16    1
    16    16    17   ar
    17    17    18   ar
    18    18    19   ar
    19    19    20   ar
    20    20    21   ar
    21    16    21   ar
    22    21    22    1
    23    10    23   ar
    24     6    23   ar
    25     2    24    1
    26    24    25   ar
    27    25    26   ar
    28    26    27   ar
    29    27    28   ar
    30    28    29   ar
    31    24    29   ar
    32    29    30    1
    33     3    31    1
    34     5    32    1
    35     7    33    1
    36     8    34    1
    37     9    35    1
    38    11    36    1
    39    13    37    1
    40    17    38    1
    41    18    39    1
    42    19    40    1
    43    20    41    1
    44    22    42    1
    45    23    43    1
    46    25    44    1
    47    26    45    1
    48    27    46    1
    49    28    47    1
    50    30    48    1
