@<TRIPOS>MOLECULE
*****
 42 44 0 0 0
SMALL
GASTEIGER

@<TRIPOS>ATOM
      1 O           1.1224    0.0015    0.0456 O.2     1  UNL1       -0.2652
      2 C           2.3522    0.0060    0.0585 C.2     1  UNL1        0.2993
      3 N           3.0785    0.9066   -0.7076 N.am    1  UNL1       -0.3073
      4 C           2.3575    1.8702   -1.5419 C.3     1  UNL1        0.0161
      5 C           3.3007    2.7670   -2.3327 C.3     1  UNL1       -0.0101
      6 C           2.6080    3.7920   -3.1715 C.ar    1  UNL1       -0.0209
      7 C           1.7044    3.5853   -4.1959 C.ar    1  UNL1        0.0060
      8 N           1.3640    4.8056   -4.7248 N.ar    1  UNL1       -0.3604
      9 C           2.0662    5.8078   -4.0942 C.ar    1  UNL1        0.0467
     10 C           2.1032    7.1887   -4.3286 C.ar    1  UNL1       -0.0378
     11 C           2.9557    7.9585   -3.5266 C.ar    1  UNL1       -0.0598
     12 C           3.7110    7.3787   -2.5113 C.ar    1  UNL1       -0.0611
     13 C           3.6444    6.0055   -2.2794 C.ar    1  UNL1       -0.0523
     14 C           2.8275    5.2011   -3.0965 C.ar    1  UNL1        0.0029
     15 C           3.1000   -1.0110    0.9665 C.2     1  UNL1        0.3032
     16 O           2.4206   -1.6654    1.7558 O.2     1  UNL1       -0.2648
     17 N           4.4975   -1.0701    0.9132 N.am    1  UNL1       -0.2765
     18 C           5.2563   -2.0020    1.6929 C.ar    1  UNL1        0.0527
     19 C           6.4283   -1.5366    2.3209 C.ar    1  UNL1       -0.0326
     20 C           7.2310   -2.3965    3.0957 C.ar    1  UNL1        0.0174
     21 C           6.8757   -3.7432    3.2338 C.ar    1  UNL1        0.2747
     22 N           7.7198   -4.6620    4.0144 N.pl3   1  UNL1        0.0796
     23 O           8.7308   -4.1944    4.5565 O.2     1  UNL1        0.0414
     24 O           7.3748   -5.8505    4.0757 O.co2   1  UNL1       -0.5760
     25 C           5.7303   -4.2308    2.6030 C.ar    1  UNL1        0.0357
     26 C           4.9318   -3.3715    1.8319 C.ar    1  UNL1        0.0685
     27 CL          3.6806   -4.1524    0.9228 Cl      1  UNL1       -0.0814
     28 H           4.0837    0.9032   -0.7324 H       1  UNL1        0.1492
     29 H           1.7119    2.4723   -0.8886 H       1  UNL1        0.0465
     30 H           1.6978    1.3135   -2.2188 H       1  UNL1        0.0465
     31 H           3.9468    2.1602   -2.9779 H       1  UNL1        0.0329
     32 H           3.9726    3.2648   -1.6225 H       1  UNL1        0.0329
     33 H           1.2805    2.6758   -4.6025 H       1  UNL1        0.0810
     34 H           0.7216    4.9480   -5.4927 H       1  UNL1        0.1653
     35 H           1.5144    7.6524   -5.1135 H       1  UNL1        0.0638
     36 H           3.0345    9.0291   -3.6992 H       1  UNL1        0.0618
     37 H           4.3674    7.9893   -1.8975 H       1  UNL1        0.0618
     38 H           4.2375    5.5605   -1.4876 H       1  UNL1        0.0624
     39 H           4.9907   -0.2716    0.5454 H       1  UNL1        0.1553
     40 H           6.7182   -0.4888    2.2611 H       1  UNL1        0.0639
     41 H           8.1225   -2.0041    3.5856 H       1  UNL1        0.0686
     42 H           5.4628   -5.2839    2.6745 H       1  UNL1        0.0701
@<TRIPOS>UNITY_ATOM_ATTR
22 1
charge 1
24 1
charge -1
@<TRIPOS>BOND
     1     1     2    2
     2     2     3   am
     3     3     4    1
     4     4     5    1
     5     5     6    1
     6     6     7   ar
     7     7     8   ar
     8     8     9   ar
     9     9    10   ar
    10    10    11   ar
    11    11    12   ar
    12    12    13   ar
    13    13    14   ar
    14     6    14   ar
    15     9    14   ar
    16     2    15    1
    17    15    16    2
    18    15    17   am
    19    17    18    1
    20    18    19   ar
    21    19    20   ar
    22    20    21   ar
    23    21    22    1
    24    22    23    2
    25    22    24    1
    26    21    25   ar
    27    25    26   ar
    28    18    26   ar
    29    26    27    1
    30     3    28    1
    31     4    29    1
    32     4    30    1
    33     5    31    1
    34     5    32    1
    35     7    33    1
    36     8    34    1
    37    10    35    1
    38    11    36    1
    39    12    37    1
    40    13    38    1
    41    17    39    1
    42    19    40    1
    43    20    41    1
    44    25    42    1
