REMARK  7 active torsions:
REMARK  status: ('A' for Active; 'I' for Inactive)
REMARK    1  A    between atoms: O_2  and  C_3 
REMARK    2  A    between atoms: C_8  and  N_9 
REMARK    3  A    between atoms: N_9  and  C_10 
REMARK    4  A    between atoms: C_10  and  N_12 
REMARK    5  A    between atoms: N_12  and  N_13 
REMARK       I    between atoms: N_13  and  C_14 
REMARK    6  A    between atoms: C_14  and  C_16 
REMARK    7  A    between atoms: N_24  and  C_25 
ROOT
ATOM      1  C   UNL d   1      -3.633  -2.523   0.038  0.00  0.00     0.031 C 
ATOM      2  C   UNL d   1      -4.961  -2.259  -0.302  0.00  0.00     0.017 C 
ATOM      3  C   UNL d   1      -5.517  -2.977  -1.411  0.00  0.00     0.015 C 
ATOM      4  C   UNL d   1      -4.806  -4.086  -1.969  0.00  0.00     0.034 C 
ATOM      5  C   UNL d   1      -3.850  -4.615  -1.171  0.00  0.00     0.117 C 
ATOM      6  C   UNL d   1      -3.058  -3.674  -0.508  0.00  0.00     0.016 C 
ATOM      7  C   UNL d   1      -3.377  -5.748  -1.962  0.00  0.00     0.250 C 
ATOM      8  O   UNL d   1      -3.933  -6.835  -2.037  0.00  0.00    -0.271 OA
ATOM      9  N   UNL d   1      -2.811  -5.184  -3.018  0.00  0.00    -0.247 N 
ATOM     10  C   UNL d   1      -4.014  -4.466  -3.377  0.00  0.00     0.263 C 
ATOM     11  O   UNL d   1      -4.617  -4.399  -4.437  0.00  0.00    -0.267 OA
ENDROOT
BRANCH   1  12
ATOM     12  C   UNL d   1      -2.891  -1.815   1.153  0.00  0.00     0.269 C 
ATOM     13  N   UNL d   1      -1.567  -1.436   0.864  0.00  0.00    -0.264 N 
ATOM     14  H   UNL d   1      -1.198  -1.401  -0.079  0.00  0.00     0.190 HD
ATOM     15  O   UNL d   1      -3.409  -1.672   2.218  0.00  0.00    -0.266 OA
BRANCH  13  16
ATOM     16  N   UNL d   1      -0.748  -0.842   1.903  0.00  0.00    -0.273 N 
ATOM     17  H   UNL d   1      -1.243  -0.593   2.756  0.00  0.00     0.189 HD
BRANCH  16  18
ATOM     18  C   UNL d   1       0.667  -0.947   1.871  0.00  0.00     0.191 C 
ATOM     19  S   UNL d   1       1.443  -2.184   1.032  0.00  0.00    -0.039 SA
BRANCH  18  20
ATOM     20  N   UNL d   1       1.298   0.168   2.480  0.00  0.00    -0.330 N 
ATOM     21  H   UNL d   1       0.936   0.456   3.381  0.00  0.00     0.168 HD
BRANCH  20  22
ATOM     22  C   UNL d   1       2.496   0.863   2.059  0.00  0.00     0.068 C 
ATOM     23  C   UNL d   1       3.277   1.519   3.050  0.00  0.00     0.032 C 
ATOM     24  C   UNL d   1       4.525   2.114   2.753  0.00  0.00     0.002 C 
ATOM     25  C   UNL d   1       5.019   2.073   1.459  0.00  0.00     0.003 C 
ATOM     26  C   UNL d   1       4.210   1.546   0.455  0.00  0.00     0.039 C 
ATOM     27  C   UNL d   1       2.942   0.979   0.730  0.00  0.00     0.095 C 
BRANCH  27  28
ATOM     28  O   UNL d   1       2.316   0.568  -0.415  0.00  0.00    -0.354 OA
ATOM     29  C   UNL d   1       0.921   0.762  -0.582  0.00  0.00     0.210 C 
ENDBRANCH  27  28
ENDBRANCH  20  22
ENDBRANCH  18  20
ENDBRANCH  16  18
ENDBRANCH  13  16
ENDBRANCH   1  12
BRANCH   9  30
ATOM     30  C   UNL d   1      -1.708  -6.030  -3.604  0.00  0.00     0.045 A 
ATOM     31  C   UNL d   1      -0.774  -6.865  -2.819  0.00  0.00     0.032 A 
ATOM     32  C   UNL d   1       0.122  -7.843  -3.397  0.00  0.00     0.026 A 
ATOM     33  C   UNL d   1       0.085  -8.047  -4.762  0.00  0.00     0.034 A 
ATOM     34 CL   UNL d   1       0.948  -9.346  -5.512  0.00  0.00    -0.084 Cl
ATOM     35  C   UNL d   1      -0.720  -7.203  -5.529  0.00  0.00     0.026 A 
ATOM     36  C   UNL d   1      -1.561  -6.191  -4.968  0.00  0.00     0.032 A 
ENDBRANCH   9  30
TORSDOF 7
