@<TRIPOS>MOLECULE
*****
 58 62 0 0 0
SMALL
GASTEIGER

@<TRIPOS>ATOM
      1 C           1.3218   -0.6197    0.1677 C.3     1  UNL1        0.0790
      2 O           2.6654   -0.1319    0.0791 O.3     1  UNL1       -0.4914
      3 C           3.0990    0.4425   -1.1023 C.ar    1  UNL1        0.1619
      4 C           4.2278   -0.2332   -1.7108 C.ar    1  UNL1       -0.0098
      5 C           4.9705    0.2989   -2.8014 C.ar    1  UNL1       -0.0059
      6 C           6.4033   -0.2348   -3.2112 C.3     1  UNL1        0.1116
      7 N           7.1174    0.8072   -3.9195 N.pl3   1  UNL1       -0.3217
      8 C           8.3017    0.5427   -4.5654 C.ar    1  UNL1        0.0383
      9 C           9.1702    1.6068   -4.8309 C.ar    1  UNL1       -0.0401
     10 C          10.3847    1.4043   -5.4727 C.ar    1  UNL1       -0.0594
     11 C          10.7272    0.1240   -5.8814 C.ar    1  UNL1       -0.0539
     12 C           9.8523   -0.9443   -5.6316 C.ar    1  UNL1       -0.0144
     13 C          10.0804   -2.1859   -6.1897 C.ar    1  UNL1       -0.0539
     14 C           9.0434   -3.1028   -6.1384 C.ar    1  UNL1       -0.0594
     15 C           8.1518   -3.0571   -5.0618 C.ar    1  UNL1       -0.0401
     16 C           7.7654   -1.8075   -4.5805 C.ar    1  UNL1        0.0383
     17 C           8.6463   -0.7498   -4.9064 C.ar    1  UNL1        0.0239
     18 N           6.5683   -1.5437   -3.8752 N.pl3   1  UNL1       -0.3217
     19 C           4.4774    1.5371   -3.2807 C.ar    1  UNL1       -0.0516
     20 C           3.4192    2.2321   -2.6662 C.ar    1  UNL1       -0.0159
     21 C           2.7298    1.7237   -1.5635 C.ar    1  UNL1        0.1626
     22 O           1.8454    2.6660   -1.0797 O.3     1  UNL1       -0.4791
     23 C           0.8799    2.2189   -0.1690 C.3     1  UNL1        0.1656
     24 C          -0.2916    3.0705    0.2991 C.2     1  UNL1        0.2548
     25 O          -0.5797    4.1525   -0.2516 O.2     1  UNL1       -0.2717
     26 N          -1.0206    2.4986    1.3547 N.am    1  UNL1       -0.2827
     27 C          -2.2320    3.0630    1.8024 C.ar    1  UNL1        0.0340
     28 C          -2.5698    3.1304    3.1550 C.ar    1  UNL1       -0.0405
     29 C          -3.7470    3.7915    3.5368 C.ar    1  UNL1       -0.0595
     30 C          -4.5940    4.3470    2.5696 C.ar    1  UNL1       -0.0500
     31 C          -4.2924    4.2171    1.2098 C.ar    1  UNL1        0.0566
     32 C          -5.2033    4.7390    0.1321 C.3     1  UNL1        0.4175
     33 F          -6.4446    4.1839    0.2052 F       1  UNL1       -0.1659
     34 F          -5.3854    6.0852    0.1939 F       1  UNL1       -0.1659
     35 F          -4.7618    4.4783   -1.1319 F       1  UNL1       -0.1659
     36 C          -3.1142    3.5667    0.8479 C.ar    1  UNL1       -0.0288
     37 H           1.3010   -1.5130    0.7965 H       1  UNL1        0.0660
     38 H           0.8553   -0.8326   -0.7981 H       1  UNL1        0.0660
     39 H           0.6964    0.0689    0.7446 H       1  UNL1        0.0660
     40 H           4.5771   -1.1528   -1.2432 H       1  UNL1        0.0659
     41 H           6.9343   -0.3127   -2.2540 H       1  UNL1        0.0759
     42 H           6.6523    1.6266   -4.2555 H       1  UNL1        0.1482
     43 H           8.8923    2.6044   -4.5071 H       1  UNL1        0.0636
     44 H          11.0374    2.2478   -5.6740 H       1  UNL1        0.0618
     45 H          11.6517   -0.0293   -6.4320 H       1  UNL1        0.0624
     46 H          10.9304   -2.3834   -6.8331 H       1  UNL1        0.0624
     47 H           8.4751   -3.0541   -7.1006 H       1  UNL1        0.0618
     48 H           7.8028   -4.0336   -4.7402 H       1  UNL1        0.0636
     49 H           5.8969   -2.2831   -3.7339 H       1  UNL1        0.1482
     50 H           4.9353    2.0795   -4.1019 H       1  UNL1        0.0623
     51 H           3.1683    3.2305   -3.0305 H       1  UNL1        0.0655
     52 H           1.4079    1.9522    0.7497 H       1  UNL1        0.0795
     53 H           0.3528    1.4106   -0.6818 H       1  UNL1        0.0795
     54 H          -0.5945    1.7787    1.9306 H       1  UNL1        0.1549
     55 H          -1.9068    2.7547    3.9308 H       1  UNL1        0.0636
     56 H          -4.0019    3.8951    4.5906 H       1  UNL1        0.0618
     57 H          -5.4951    4.8762    2.8757 H       1  UNL1        0.0623
     58 H          -2.8860    3.4422   -0.2093 H       1  UNL1        0.0642
@<TRIPOS>BOND
     1     1     2    1
     2     2     3    1
     3     3     4   ar
     4     4     5   ar
     5     5     6    1
     6     6     7    1
     7     7     8    1
     8     8     9   ar
     9     9    10   ar
    10    10    11   ar
    11    11    12   ar
    12    12    13   ar
    13    13    14   ar
    14    14    15   ar
    15    15    16   ar
    16    16    17   ar
    17     8    17   ar
    18    12    17   ar
    19    16    18    1
    20     6    18    1
    21     5    19   ar
    22    19    20   ar
    23    20    21   ar
    24     3    21   ar
    25    21    22    1
    26    22    23    1
    27    23    24    1
    28    24    25    2
    29    24    26   am
    30    26    27    1
    31    27    28   ar
    32    28    29   ar
    33    29    30   ar
    34    30    31   ar
    35    31    32    1
    36    32    33    1
    37    32    34    1
    38    32    35    1
    39    31    36   ar
    40    27    36   ar
    41     1    37    1
    42     1    38    1
    43     1    39    1
    44     4    40    1
    45     6    41    1
    46     7    42    1
    47     9    43    1
    48    10    44    1
    49    11    45    1
    50    13    46    1
    51    14    47    1
    52    15    48    1
    53    18    49    1
    54    19    50    1
    55    20    51    1
    56    23    52    1
    57    23    53    1
    58    26    54    1
    59    28    55    1
    60    29    56    1
    61    30    57    1
    62    36    58    1
