REMARK  12 active torsions:
REMARK  status: ('A' for Active; 'I' for Inactive)
REMARK    1  A    between atoms: C_2  and  C_3 
REMARK    2  A    between atoms: C_3  and  C_4 
REMARK    3  A    between atoms: C_4  and  C_5 
REMARK    4  A    between atoms: C_5  and  C_6 
REMARK    5  A    between atoms: C_6  and  N_8 
REMARK       I    between atoms: N_8  and  C_9 
REMARK       I    between atoms: C_9  and  N_11 
REMARK    6  A    between atoms: N_11  and  C_12 
REMARK    7  A    between atoms: C_13  and  C_12 
REMARK    8  A    between atoms: C_13  and  C_15 
REMARK    9  A    between atoms: C_13  and  O_14 
REMARK   10  A    between atoms: C_15  and  O_16 
REMARK   11  A    between atoms: O_16  and  C_17 
REMARK   12  A    between atoms: C_20  and  N_21 
ROOT
ATOM      1  C   UNL d   1      10.130   7.967  -3.031  0.00  0.00     0.158 C 
ENDROOT
BRANCH   1   2
ATOM      2  N   UNL d   1      11.032   9.085  -2.752  0.00  0.00    -0.341 N 
ATOM      3  C   UNL d   1      10.611  10.214  -2.126  0.00  0.00     0.316 C 
ATOM      4  N   UNL d   1      11.546  11.224  -2.119  0.00  0.00    -0.339 N 
ATOM      5  O   UNL d   1       9.493  10.300  -1.621  0.00  0.00    -0.247 OA
ATOM      6  H   UNL d   1      12.480  11.047  -2.457  0.00  0.00     0.164 HD
ATOM      7  H   UNL d   1      11.850   9.180  -3.335  0.00  0.00     0.164 HD
BRANCH   4   8
ATOM      8  C   UNL d   1      11.260  12.496  -1.455  0.00  0.00     0.082 C 
ATOM      9  C   UNL d   1      10.072  13.182  -2.138  0.00  0.00     0.032 C 
BRANCH   8  10
ATOM     10  C   UNL d   1      12.475  13.450  -1.432  0.00  0.00     0.025 C 
BRANCH  10  11
ATOM     11  C   UNL d   1      12.156  14.755  -0.687  0.00  0.00     0.002 C 
BRANCH  11  12
ATOM     12  C   UNL d   1      13.328  15.723  -0.687  0.00  0.00    -0.000 C 
BRANCH  12  13
ATOM     13  C   UNL d   1      12.952  17.014   0.038  0.00  0.00    -0.005 C 
ATOM     14  C   UNL d   1      14.118  17.983   0.034  0.00  0.00     0.005 C 
ENDBRANCH  12  13
ENDBRANCH  11  12
ENDBRANCH  10  11
ENDBRANCH   8  10
ENDBRANCH   4   8
ENDBRANCH   1   2
BRANCH   1  15
ATOM     15  C   UNL d   1      10.765   6.793  -3.820  0.00  0.00     0.160 C 
BRANCH  15  16
ATOM     16  C   UNL d   1      12.275   6.959  -4.042  0.00  0.00     0.209 C 
BRANCH  16  17
ATOM     17  O   UNL d   1      12.488   8.211  -4.713  0.00  0.00    -0.349 OA
BRANCH  17  18
ATOM     18  C   UNL d   1      13.779   8.568  -4.958  0.00  0.00     0.069 A 
ATOM     19  C   UNL d   1      14.091   9.929  -4.845  0.00  0.00     0.039 A 
ATOM     20  C   UNL d   1      15.349  10.396  -5.231  0.00  0.00     0.039 A 
ATOM     21  C   UNL d   1      16.306   9.478  -5.675  0.00  0.00     0.103 A 
ATOM     22  C   UNL d   1      15.989   8.119  -5.797  0.00  0.00     0.039 A 
ATOM     23  C   UNL d   1      14.721   7.668  -5.438  0.00  0.00     0.039 A 
BRANCH  21  24
ATOM     24  N   UNL d   1      17.669   9.929  -5.972  0.00  0.00    -0.116 N 
ATOM     25  O   UNL d   1      17.922  11.133  -5.827  0.00  0.00    -0.532 OA
ATOM     26  O   UNL d   1      18.494   9.073  -6.321  0.00  0.00    -0.532 OA
ENDBRANCH  21  24
ENDBRANCH  17  18
ENDBRANCH  16  17
ENDBRANCH  15  16
BRANCH  15  27
ATOM     27  O   UNL d   1      10.519   5.542  -3.165  0.00  0.00    -0.392 OA
ATOM     28  H   UNL d   1      10.868   5.600  -2.258  0.00  0.00     0.210 HD
ENDBRANCH  15  27
ENDBRANCH   1  15
TORSDOF 12
