@<TRIPOS>MOLECULE
*****
 55 60 0 0 0
SMALL
GASTEIGER

@<TRIPOS>ATOM
      1 O          -3.2250    0.6378   -0.0117 O.2     1  UNL1       -0.2737
      2 C          -2.0813    0.2039   -0.0218 C.2     1  UNL1        0.2350
      3 C          -1.7545   -1.2428    0.3552 C.3     1  UNL1        0.0964
      4 N          -0.5180   -1.7371   -0.2701 N.am    1  UNL1       -0.2602
      5 C          -0.3934   -2.9093   -1.0345 C.2     1  UNL1        0.2303
      6 O           0.6329   -3.1775   -1.6651 O.2     1  UNL1       -0.2743
      7 C          -1.6264   -3.8386   -1.1456 C.3     1  UNL1        0.0761
      8 S          -1.2186   -5.3950   -2.0951 S.3     1  UNL1       -0.0827
      9 C          -2.8340   -6.1732   -2.3343 C.3     1  UNL1        0.2383
     10 N          -2.7996   -7.6013   -2.0025 N.pl3   1  UNL1       -0.1245
     11 N          -3.1152   -8.4502   -3.0370 N.2     1  UNL1        0.0444
     12 C          -3.2195   -7.6953   -4.0767 C.2     1  UNL1        0.3482
     13 C          -3.3366   -8.1257   -5.4774 C.2     1  UNL1        0.1224
     14 C          -2.4683   -7.8088   -6.4461 C.ar    1  UNL1        0.0627
     15 C          -1.2924   -7.0071   -6.5105 C.ar    1  UNL1       -0.0476
     16 C          -0.6536   -6.8898   -7.6850 C.ar    1  UNL1       -0.0608
     17 C          -1.1131   -7.5722   -8.8850 C.ar    1  UNL1       -0.0555
     18 C          -2.1849   -8.3877   -8.9082 C.ar    1  UNL1        0.0098
     19 C          -2.9228   -8.5638   -7.6396 C.ar    1  UNL1        0.2091
     20 N          -3.9436   -9.2909   -7.3859 N.2     1  UNL1       -0.2363
     21 C          -4.3241   -9.1461   -5.9537 C.3     1  UNL1        0.1772
     22 N          -3.1784   -6.2931   -3.7725 N.pl3   1  UNL1       -0.1853
     23 C          -3.7196   -5.2387   -4.5840 C.3     1  UNL1        0.0944
     24 C          -4.0370   -3.8788   -4.0142 C.3     1  UNL1       -0.0100
     25 C          -2.8933   -4.0355   -4.9608 C.3     1  UNL1       -0.0100
     26 C           0.5821   -0.8203   -0.1287 C.ar    1  UNL1        0.0580
     27 C           1.9050   -1.2520   -0.0159 C.ar    1  UNL1       -0.0385
     28 C           2.9434   -0.3244    0.1104 C.ar    1  UNL1       -0.0599
     29 C           2.6736    1.0438    0.0994 C.ar    1  UNL1       -0.0599
     30 C           1.3589    1.4939   -0.0110 C.ar    1  UNL1       -0.0387
     31 C           0.3185    0.5655   -0.0989 C.ar    1  UNL1        0.0551
     32 N          -0.9996    1.0318   -0.1924 N.am    1  UNL1       -0.2827
     33 H          -2.6114   -1.8689    0.1079 H       1  UNL1        0.0564
     34 H          -1.6029   -1.2780    1.4429 H       1  UNL1        0.0564
     35 H          -2.4009   -3.2709   -1.6607 H       1  UNL1        0.0473
     36 H          -1.9653   -4.1250   -0.1485 H       1  UNL1        0.0473
     37 H          -3.6339   -5.6734   -1.7800 H       1  UNL1        0.1142
     38 H          -3.1816   -7.8479   -1.0905 H       1  UNL1        0.1999
     39 H          -0.9192   -6.5120   -5.6195 H       1  UNL1        0.0626
     40 H           0.2438   -6.2775   -7.7621 H       1  UNL1        0.0618
     41 H          -0.5250   -7.3986   -9.7878 H       1  UNL1        0.0620
     42 H          -2.4823   -8.8853   -9.8264 H       1  UNL1        0.0683
     43 H          -4.4023   -9.8712   -8.0909 H       1  UNL1        0.4460
     44 H          -4.2227  -10.1258   -5.4799 H       1  UNL1        0.1083
     45 H          -5.3525   -8.7798   -5.9182 H       1  UNL1        0.1083
     46 H          -4.3658   -5.5915   -5.3857 H       1  UNL1        0.0764
     47 H          -3.8205   -3.6584   -2.9833 H       1  UNL1        0.0306
     48 H          -4.9178   -3.3481   -4.3563 H       1  UNL1        0.0306
     49 H          -1.8759   -3.9627   -4.5972 H       1  UNL1        0.0306
     50 H          -3.0094   -3.6265   -5.9599 H       1  UNL1        0.0306
     51 H           2.1480   -2.3107    0.0115 H       1  UNL1        0.0637
     52 H           3.9678   -0.6742    0.2187 H       1  UNL1        0.0618
     53 H           3.4904    1.7576    0.1858 H       1  UNL1        0.0618
     54 H           1.1637    2.5634   -0.0014 H       1  UNL1        0.0637
     55 H          -1.1889    2.0184   -0.3239 H       1  UNL1        0.1549
@<TRIPOS>UNITY_ATOM_ATTR
20 1
charge 1
@<TRIPOS>BOND
     1     1     2    2
     2     2     3    1
     3     3     4    1
     4     4     5   am
     5     5     6    2
     6     5     7    1
     7     7     8    1
     8     8     9    1
     9     9    10    1
    10    10    11    1
    11    11    12    2
    12    12    13    1
    13    13    14    2
    14    14    15   ar
    15    15    16   ar
    16    16    17   ar
    17    17    18   ar
    18    18    19   ar
    19    14    19   ar
    20    19    20    2
    21    20    21    1
    22    13    21    1
    23    12    22    1
    24     9    22    1
    25    22    23    1
    26    23    24    1
    27    24    25    1
    28    23    25    1
    29     4    26    1
    30    26    27   ar
    31    27    28   ar
    32    28    29   ar
    33    29    30   ar
    34    30    31   ar
    35    26    31   ar
    36    31    32    1
    37     2    32   am
    38     3    33    1
    39     3    34    1
    40     7    35    1
    41     7    36    1
    42     9    37    1
    43    10    38    1
    44    15    39    1
    45    16    40    1
    46    17    41    1
    47    18    42    1
    48    20    43    1
    49    21    44    1
    50    21    45    1
    51    23    46    1
    52    24    47    1
    53    24    48    1
    54    25    49    1
    55    25    50    1
    56    27    51    1
    57    28    52    1
    58    29    53    1
    59    30    54    1
    60    32    55    1
