@<TRIPOS>MOLECULE
*****
 58 60 0 0 0
SMALL
GASTEIGER

@<TRIPOS>ATOM
      1 C           0.9088    0.0720   -0.0642 C.2     1  UNL1       -0.1023
      2 C           2.2464    0.0926   -0.0546 C.2     1  UNL1       -0.0867
      3 C           3.0644    1.0807   -0.8485 C.3     1  UNL1       -0.0063
      4 C           4.5613    0.9053   -0.6876 C.ar    1  UNL1       -0.0016
      5 C           5.1310   -0.3788   -0.6692 C.ar    1  UNL1       -0.0548
      6 C           6.4991   -0.5504   -0.4739 C.ar    1  UNL1       -0.0607
      7 C           7.3313    0.5646   -0.3257 C.ar    1  UNL1       -0.0496
      8 C           6.7937    1.8592   -0.3852 C.ar    1  UNL1        0.0362
      9 C           7.6951    3.0392   -0.2336 C.2     1  UNL1        0.0563
     10 N           7.1971    4.2373   -0.2680 N.2     1  UNL1       -0.1874
     11 N           8.0232    5.3149   -0.1796 N.pl3   1  UNL1       -0.2054
     12 C           7.5032    6.5747   -0.1279 C.ar    1  UNL1        0.2317
     13 N           6.3808    7.0156    0.4099 N.ar    1  UNL1       -0.1865
     14 C           6.3597    8.3499    0.0995 C.ar    1  UNL1        0.2101
     15 S           5.1156    9.5000    0.5679 S.3     1  UNL1       -0.0839
     16 C           3.9885    8.5480    1.6372 C.3     1  UNL1        0.0094
     17 C           2.8155    9.4163    2.1600 C.3     1  UNL1        0.0337
     18 C           1.9163    8.5894    3.0764 C.2     1  UNL1        0.2180
     19 O           2.1549    7.3937    3.2755 O.2     1  UNL1       -0.2754
     20 N           0.8171    9.2549    3.6156 N.am    1  UNL1       -0.2852
     21 C          -0.1480    8.5644    4.4073 C.ar    1  UNL1        0.0363
     22 C           0.2779    7.7000    5.4221 C.ar    1  UNL1       -0.0400
     23 C          -0.6358    6.9603    6.1766 C.ar    1  UNL1       -0.0571
     24 C          -2.0048    7.0611    5.9297 C.ar    1  UNL1       -0.0501
     25 C          -2.9759    6.2237    6.7131 C.3     1  UNL1       -0.0397
     26 C          -2.4439    7.9439    4.9308 C.ar    1  UNL1       -0.0542
     27 C          -1.5281    8.7155    4.1764 C.ar    1  UNL1       -0.0290
     28 C          -2.0403    9.6101    3.0835 C.3     1  UNL1       -0.0379
     29 N           7.4000    8.7616   -0.6387 N.ar    1  UNL1       -0.1443
     30 N           8.1077    7.6248   -0.7684 N.ar    1  UNL1       -0.2446
     31 C           5.4113    2.0195   -0.5877 C.ar    1  UNL1        0.1289
     32 O           4.8315    3.2576   -0.7081 O.3     1  UNL1       -0.5058
     33 H           0.3664   -0.6583    0.5267 H       1  UNL1        0.0532
     34 H           0.3403    0.7896   -0.6460 H       1  UNL1        0.0532
     35 H           2.7622   -0.6294    0.5734 H       1  UNL1        0.0570
     36 H           2.7674    2.0829   -0.5167 H       1  UNL1        0.0357
     37 H           2.8266    0.9979   -1.9161 H       1  UNL1        0.0357
     38 H           4.5016   -1.2603   -0.7869 H       1  UNL1        0.0622
     39 H           6.9016   -1.5606   -0.4299 H       1  UNL1        0.0618
     40 H           8.3928    0.3970   -0.1708 H       1  UNL1        0.0625
     41 H           8.7739    2.8450   -0.0976 H       1  UNL1        0.0852
     42 H           9.0307    5.1742   -0.1098 H       1  UNL1        0.1774
     43 H           4.5547    8.1511    2.4869 H       1  UNL1        0.0385
     44 H           3.5918    7.6994    1.0690 H       1  UNL1        0.0385
     45 H           2.2138    9.7923    1.3227 H       1  UNL1        0.0367
     46 H           3.1923   10.2736    2.7307 H       1  UNL1        0.0367
     47 H           0.5241   10.1212    3.1812 H       1  UNL1        0.1548
     48 H           1.3368    7.5961    5.6434 H       1  UNL1        0.0636
     49 H          -0.2597    6.2929    6.9482 H       1  UNL1        0.0621
     50 H          -2.4597    5.6111    7.4620 H       1  UNL1        0.0278
     51 H          -3.5189    5.5420    6.0504 H       1  UNL1        0.0278
     52 H          -3.6903    6.8595    7.2450 H       1  UNL1        0.0278
     53 H          -3.5118    8.0112    4.7237 H       1  UNL1        0.0623
     54 H          -3.1290    9.5550    2.9797 H       1  UNL1        0.0278
     55 H          -1.6033    9.3160    2.1231 H       1  UNL1        0.0278
     56 H          -1.7752   10.6492    3.3006 H       1  UNL1        0.0278
     57 H           8.9313    7.6221   -1.3579 H       1  UNL1        0.1919
     58 H           5.5187    3.9471   -0.5590 H       1  UNL1        0.2922
@<TRIPOS>BOND
     1     1     2    2
     2     2     3    1
     3     3     4    1
     4     4     5   ar
     5     5     6   ar
     6     6     7   ar
     7     7     8   ar
     8     8     9    1
     9     9    10    2
    10    10    11    1
    11    11    12    1
    12    12    13   ar
    13    13    14   ar
    14    14    15    1
    15    15    16    1
    16    16    17    1
    17    17    18    1
    18    18    19    2
    19    18    20   am
    20    20    21    1
    21    21    22   ar
    22    22    23   ar
    23    23    24   ar
    24    24    25    1
    25    24    26   ar
    26    26    27   ar
    27    21    27   ar
    28    27    28    1
    29    14    29   ar
    30    29    30   ar
    31    12    30   ar
    32     8    31   ar
    33     4    31   ar
    34    31    32    1
    35     1    33    1
    36     1    34    1
    37     2    35    1
    38     3    36    1
    39     3    37    1
    40     5    38    1
    41     6    39    1
    42     7    40    1
    43     9    41    1
    44    11    42    1
    45    16    43    1
    46    16    44    1
    47    17    45    1
    48    17    46    1
    49    20    47    1
    50    22    48    1
    51    23    49    1
    52    25    50    1
    53    25    51    1
    54    25    52    1
    55    26    53    1
    56    28    54    1
    57    28    55    1
    58    28    56    1
    59    30    57    1
    60    32    58    1
