REMARK  8 active torsions:
REMARK  status: ('A' for Active; 'I' for Inactive)
REMARK    1  A    between atoms: O_2  and  C_3 
REMARK    2  A    between atoms: C_6  and  S_7 
REMARK    3  A    between atoms: S_7  and  N_10 
REMARK    4  A    between atoms: N_10  and  C_11 
REMARK    5  A    between atoms: C_14  and  N_15 
REMARK    6  A    between atoms: N_15  and  C_16 
REMARK    7  A    between atoms: C_21  and  N_22 
REMARK    8  A    between atoms: C_31  and  O_32 
ROOT
ATOM      1  C   UNL d   1       4.896   5.045  -5.954  0.00  0.00     0.042 C 
ATOM      2  C   UNL d   1       5.061   6.433  -5.886  0.00  0.00     0.032 C 
ATOM      3  C   UNL d   1       5.434   7.176  -7.041  0.00  0.00     0.032 C 
ATOM      4  C   UNL d   1       5.731   6.533  -8.256  0.00  0.00     0.033 C 
ATOM      5  C   UNL d   1       5.467   5.161  -8.305  0.00  0.00     0.032 C 
ATOM      6  C   UNL d   1       5.034   4.441  -7.192  0.00  0.00     0.032 C 
ENDROOT
BRANCH   1   7
ATOM      7  N   UNL d   1       4.505   4.267  -4.815  0.00  0.00    -0.281 N 
ATOM      8  H   UNL d   1       3.692   4.559  -4.285  0.00  0.00     0.179 HD
BRANCH   7   9
ATOM      9  S   UNL d   1       5.269   2.775  -4.515  0.00  0.00     0.263 S 
ATOM     10  O   UNL d   1       6.625   3.058  -4.133  0.00  0.00    -0.200 OA
ATOM     11  O   UNL d   1       4.977   1.887  -5.638  0.00  0.00    -0.200 OA
BRANCH   9  12
ATOM     12  C   UNL d   1       4.466   1.995  -3.128  0.00  0.00     0.082 A 
ATOM     13  C   UNL d   1       4.893   0.724  -2.735  0.00  0.00     0.028 A 
ATOM     14  C   UNL d   1       4.168   0.009  -1.759  0.00  0.00     0.041 A 
ATOM     15  C   UNL d   1       3.044   0.566  -1.108  0.00  0.00     0.101 A 
ATOM     16  C   UNL d   1       2.680   1.883  -1.463  0.00  0.00     0.102 A 
ATOM     17  C   UNL d   1       3.377   2.563  -2.487  0.00  0.00     0.065 A 
BRANCH  15  18
ATOM     18  O   UNL d   1       2.601  -0.184  -0.038  0.00  0.00    -0.353 OA
ATOM     19  C   UNL d   1       1.243  -0.628   0.032  0.00  0.00     0.210 C 
ENDBRANCH  15  18
BRANCH  16  20
ATOM     20  O   UNL d   1       1.749   2.747  -0.935  0.00  0.00    -0.353 OA
ATOM     21  C   UNL d   1       0.844   2.185  -0.029  0.00  0.00     0.210 C 
ENDBRANCH  16  20
ENDBRANCH   9  12
ENDBRANCH   7   9
ENDBRANCH   1   7
BRANCH   4  22
ATOM     22  N   UNL d   1       6.209   7.243  -9.400  0.00  0.00    -0.340 N 
ATOM     23  H   UNL d   1       6.739   8.075  -9.161  0.00  0.00     0.167 HD
BRANCH  22  24
ATOM     24  C   UNL d   1       6.603   6.660 -10.648  0.00  0.00     0.149 A 
ATOM     25  C   UNL d   1       5.596   5.987 -11.319  0.00  0.00     0.076 A 
ATOM     26  C   UNL d   1       5.864   5.419 -12.546  0.00  0.00     0.026 A 
ATOM     27  C   UNL d   1       4.782   4.694 -13.282  0.00  0.00     0.069 C 
ATOM     28  N   UNL d   1       7.094   5.537 -13.063  0.00  0.00    -0.194 N 
ATOM     29  C   UNL d   1       8.086   6.170 -12.412  0.00  0.00     0.704 A 
ATOM     30  H   UNL d   1       7.347   5.109 -13.945  0.00  0.00     0.184 HD
ATOM     31  N   UNL d   1       7.857   6.755 -11.185  0.00  0.00    -0.047 NA
BRANCH  29  32
ATOM     32  N   UNL d   1       9.309   6.093 -13.042  0.00  0.00    -0.216 N 
ATOM     33  C   UNL d   1      10.544   5.692 -12.366  0.00  0.00     0.141 C 
ATOM     34  C   UNL d   1      11.581   6.722 -12.806  0.00  0.00     0.022 C 
ATOM     35  C   UNL d   1      11.174   7.031 -14.237  0.00  0.00     0.022 C 
ATOM     36  C   UNL d   1       9.642   6.865 -14.251  0.00  0.00     0.141 C 
ENDBRANCH  29  32
ENDBRANCH  22  24
ENDBRANCH   4  22
TORSDOF 8
