@<TRIPOS>MOLECULE
*****
 46 48 0 0 0
SMALL
GASTEIGER

@<TRIPOS>ATOM
      1 C           2.4602   -0.3948   -0.0041 C.3     1  UNL1       -0.0380
      2 C           0.9999   -0.1039    0.0036 C.ar    1  UNL1       -0.0291
      3 C           0.1742   -1.2443    0.0065 C.ar    1  UNL1       -0.0553
      4 C          -1.2113   -1.1412   -0.0040 C.ar    1  UNL1       -0.0401
      5 C          -1.8013    0.1215   -0.0178 C.ar    1  UNL1        0.0352
      6 N          -3.2228    0.1920   -0.0563 N.am    1  UNL1       -0.2852
      7 C          -3.9596    1.3627   -0.0920 C.2     1  UNL1        0.2203
      8 O          -3.5259    2.5041   -0.0645 O.2     1  UNL1       -0.2752
      9 C          -5.4402    1.2047   -0.1390 C.3     1  UNL1        0.0359
     10 C          -6.1774    2.0468   -1.1728 C.3     1  UNL1       -0.0412
     11 C          -6.1750    0.5522   -1.2803 C.3     1  UNL1       -0.0412
     12 C          -0.9609    1.2642   -0.0032 C.ar    1  UNL1       -0.0189
     13 C           0.4501    1.1908    0.0014 C.ar    1  UNL1        0.0395
     14 N           1.1817    2.4429    0.0033 N.am    1  UNL1       -0.2676
     15 C           2.5486    2.6442   -0.0119 C.2     1  UNL1        0.3268
     16 O           3.4290    1.7869   -0.0525 O.2     1  UNL1       -0.2504
     17 N           3.0010    3.9405    0.0489 N.am    1  UNL1       -0.1778
     18 O           4.4341    3.9129    0.0128 O.3     1  UNL1       -0.2740
     19 C           5.0263    5.1883   -0.0034 C.3     1  UNL1        0.0983
     20 C           6.5398    5.0903    0.0346 C.ar    1  UNL1       -0.0197
     21 C           7.2750    6.2846    0.0496 C.ar    1  UNL1       -0.0563
     22 C           8.6707    6.2693    0.0690 C.ar    1  UNL1       -0.0614
     23 C           9.3565    5.0573    0.0742 C.ar    1  UNL1       -0.0617
     24 C           8.6451    3.8593    0.0677 C.ar    1  UNL1       -0.0614
     25 C           7.2450    3.8737    0.0472 C.ar    1  UNL1       -0.0563
     26 H           2.7284   -1.4495   -0.0014 H       1  UNL1        0.0278
     27 H           2.8828    0.0132    0.9206 H       1  UNL1        0.0278
     28 H           2.8646   -0.0019   -0.9435 H       1  UNL1        0.0278
     29 H           0.6425   -2.2283    0.0105 H       1  UNL1        0.0621
     30 H          -1.7868   -2.0631   -0.0064 H       1  UNL1        0.0636
     31 H          -3.7309   -0.6858   -0.0691 H       1  UNL1        0.1548
     32 H          -5.8983    1.1930    0.8457 H       1  UNL1        0.0394
     33 H          -5.5861    2.6135   -1.8875 H       1  UNL1        0.0273
     34 H          -7.0807    2.5613   -0.8659 H       1  UNL1        0.0273
     35 H          -5.6024    0.1136   -2.0882 H       1  UNL1        0.0273
     36 H          -7.1041    0.0373   -1.0613 H       1  UNL1        0.0273
     37 H          -1.4089    2.2499    0.0021 H       1  UNL1        0.0655
     38 H           0.6077    3.2756    0.0037 H       1  UNL1        0.1564
     39 H           2.4937    4.8054   -0.0347 H       1  UNL1        0.1841
     40 H           4.6811    5.7367    0.8767 H       1  UNL1        0.0634
     41 H           4.7259    5.6930   -0.9257 H       1  UNL1        0.0634
     42 H           6.7557    7.2395    0.0434 H       1  UNL1        0.0621
     43 H           9.2211    7.2059    0.0779 H       1  UNL1        0.0618
     44 H          10.4432    5.0469    0.0827 H       1  UNL1        0.0618
     45 H           9.1796    2.9118    0.0763 H       1  UNL1        0.0618
     46 H           6.7148    2.9212    0.0390 H       1  UNL1        0.0621
@<TRIPOS>BOND
     1     1     2    1
     2     2     3   ar
     3     3     4   ar
     4     4     5   ar
     5     5     6    1
     6     6     7   am
     7     7     8    2
     8     7     9    1
     9     9    10    1
    10    10    11    1
    11     9    11    1
    12     5    12   ar
    13    12    13   ar
    14     2    13   ar
    15    13    14    1
    16    14    15   am
    17    15    16    2
    18    15    17   am
    19    17    18    1
    20    18    19    1
    21    19    20    1
    22    20    21   ar
    23    21    22   ar
    24    22    23   ar
    25    23    24   ar
    26    24    25   ar
    27    20    25   ar
    28     1    26    1
    29     1    27    1
    30     1    28    1
    31     3    29    1
    32     4    30    1
    33     6    31    1
    34     9    32    1
    35    10    33    1
    36    10    34    1
    37    11    35    1
    38    11    36    1
    39    12    37    1
    40    14    38    1
    41    17    39    1
    42    19    40    1
    43    19    41    1
    44    21    42    1
    45    22    43    1
    46    23    44    1
    47    24    45    1
    48    25    46    1
