@<TRIPOS>MOLECULE
*****
 57 58 0 0 0
SMALL
GASTEIGER

@<TRIPOS>ATOM
      1 C           2.9106   -0.0410    0.0046 C.3     1  UNL1       -0.0397
      2 C           1.4119   -0.0562    0.0016 C.ar    1  UNL1       -0.0487
      3 C           0.6767   -1.2300    0.0021 C.ar    1  UNL1       -0.0585
      4 C          -0.7177   -1.1664   -0.0007 C.ar    1  UNL1       -0.0568
      5 C          -1.4065    0.0732   -0.0008 C.ar    1  UNL1       -0.0292
      6 C          -2.9098    0.0258   -0.0010 C.3     1  UNL1       -0.0380
      7 C          -0.6662    1.2769    0.0001 C.ar    1  UNL1        0.0366
      8 N          -1.2993    2.5683    0.0006 N.am    1  UNL1       -0.2852
      9 C          -0.6244    3.7908   -0.0003 C.2     1  UNL1        0.2177
     10 O           0.6031    3.9284   -0.0016 O.2     1  UNL1       -0.2755
     11 C          -1.4729    5.0555   -0.0000 C.3     1  UNL1        0.0326
     12 C          -0.5564    6.3157   -0.0012 C.3     1  UNL1        0.0336
     13 C          -1.3325    7.6382   -0.0010 C.2     1  UNL1        0.2295
     14 O          -2.5651    7.6779    0.0000 O.2     1  UNL1       -0.2743
     15 N          -0.5621    8.7931   -0.0019 N.am    1  UNL1       -0.2351
     16 N          -1.1720   10.1285   -0.0017 N.am    1  UNL1       -0.2455
     17 C          -0.3365   11.2659   -0.0042 C.2     1  UNL1        0.1531
     18 S           1.3383   11.0420   -0.0046 S.2     1  UNL1       -0.0170
     19 N          -0.9954   12.5314   -0.0055 N.am    1  UNL1       -0.2639
     20 C          -0.3612   13.8067   -0.0108 C.2     1  UNL1        0.2561
     21 O           0.8653   13.9321   -0.0067 O.2     1  UNL1       -0.2717
     22 C          -1.2263   15.1096   -0.0111 C.3     1  UNL1        0.1655
     23 O          -0.3240   16.2445   -0.0904 O.3     1  UNL1       -0.4828
     24 C          -0.8200   17.5182   -0.0334 C.ar    1  UNL1        0.1215
     25 C          -0.1950   18.4764   -0.8409 C.ar    1  UNL1       -0.0189
     26 C          -0.6154   19.8135   -0.8272 C.ar    1  UNL1       -0.0441
     27 C          -1.6513   20.2155    0.0177 C.ar    1  UNL1        0.0210
     28 BR         -2.1674   22.0444   -0.0569 Br      1  UNL1       -0.0500
     29 C          -2.2618   19.2827    0.8697 C.ar    1  UNL1       -0.0330
     30 C          -3.3708   19.6316    1.8235 C.3     1  UNL1       -0.0385
     31 C          -1.8241   17.9349    0.8380 C.ar    1  UNL1       -0.0160
     32 C           0.7325    1.1667    0.0008 C.ar    1  UNL1       -0.0373
     33 H           3.3225   -1.0531   -0.0040 H       1  UNL1        0.0278
     34 H           3.2777    0.4713    0.9008 H       1  UNL1        0.0278
     35 H           3.2822    0.4870   -0.8807 H       1  UNL1        0.0278
     36 H           1.1810   -2.1928    0.0051 H       1  UNL1        0.0620
     37 H          -1.2668   -2.1074   -0.0024 H       1  UNL1        0.0621
     38 H          -3.2817   -1.0074    0.0007 H       1  UNL1        0.0278
     39 H          -3.3059    0.5093   -0.8982 H       1  UNL1        0.0278
     40 H          -3.3063    0.5121    0.8945 H       1  UNL1        0.0278
     41 H          -2.3128    2.5749    0.0012 H       1  UNL1        0.1548
     42 H          -2.1083    5.0563    0.8918 H       1  UNL1        0.0363
     43 H          -2.1097    5.0557   -0.8908 H       1  UNL1        0.0363
     44 H           0.0988    6.2860   -0.8838 H       1  UNL1        0.0363
     45 H           0.1002    6.2866    0.8804 H       1  UNL1        0.0363
     46 H           0.4608    8.7790   -0.0031 H       1  UNL1        0.1728
     47 H          -2.1903   10.1173   -0.0026 H       1  UNL1        0.1718
     48 H          -2.0062   12.5228   -0.0065 H       1  UNL1        0.1566
     49 H          -1.8121   15.1457    0.9108 H       1  UNL1        0.0795
     50 H          -1.8684   15.1269   -0.8964 H       1  UNL1        0.0795
     51 H           0.6258   18.1920   -1.4963 H       1  UNL1        0.0654
     52 H          -0.1304   20.5370   -1.4804 H       1  UNL1        0.0630
     53 H          -3.6633   20.6828    1.7928 H       1  UNL1        0.0278
     54 H          -3.0654   19.4125    2.8516 H       1  UNL1        0.0278
     55 H          -4.2608   19.0439    1.5768 H       1  UNL1        0.0278
     56 H          -2.2625   17.2298    1.5363 H       1  UNL1        0.0657
     57 H           1.3731    2.0376    0.0019 H       1  UNL1        0.0639
@<TRIPOS>BOND
     1     1     2    1
     2     2     3   ar
     3     3     4   ar
     4     4     5   ar
     5     5     6    1
     6     5     7   ar
     7     7     8    1
     8     8     9   am
     9     9    10    2
    10     9    11    1
    11    11    12    1
    12    12    13    1
    13    13    14    2
    14    13    15   am
    15    15    16    1
    16    16    17    1
    17    17    18    2
    18    17    19    1
    19    19    20   am
    20    20    21    2
    21    20    22    1
    22    22    23    1
    23    23    24    1
    24    24    25   ar
    25    25    26   ar
    26    26    27   ar
    27    27    28    1
    28    27    29   ar
    29    29    30    1
    30    29    31   ar
    31    24    31   ar
    32     7    32   ar
    33     2    32   ar
    34     1    33    1
    35     1    34    1
    36     1    35    1
    37     3    36    1
    38     4    37    1
    39     6    38    1
    40     6    39    1
    41     6    40    1
    42     8    41    1
    43    11    42    1
    44    11    43    1
    45    12    44    1
    46    12    45    1
    47    15    46    1
    48    16    47    1
    49    19    48    1
    50    22    49    1
    51    22    50    1
    52    25    51    1
    53    26    52    1
    54    30    53    1
    55    30    54    1
    56    30    55    1
    57    31    56    1
    58    32    57    1
