@<TRIPOS>MOLECULE
*****
 54 57 0 0 0
SMALL
GASTEIGER

@<TRIPOS>ATOM
      1 C           1.0509    0.0182    0.0694 C.3     1  UNL1       -0.0222
      2 C           2.5454    0.0292   -0.1891 C.ar    1  UNL1        0.0441
      3 C           3.1137    1.2267   -0.3435 C.ar    1  UNL1        0.0085
      4 C           4.5397    1.2668   -0.6809 C.ar    1  UNL1        0.2127
      5 O           5.0519    2.3422   -0.9077 O.2     1  UNL1       -0.2853
      6 C           5.3210   -0.0528   -0.6216 C.ar    1  UNL1        0.1927
      7 C           6.8733    0.0281   -0.6356 C.2     1  UNL1        0.2721
      8 O           7.4172    1.0928   -0.9295 O.2     1  UNL1       -0.2680
      9 N           7.5961   -1.0942   -0.2525 N.am    1  UNL1       -0.2798
     10 C           8.9981   -1.0453   -0.0109 C.ar    1  UNL1        0.0372
     11 C           9.7687   -1.9287   -0.7743 C.ar    1  UNL1       -0.0402
     12 C          11.1640   -1.8703   -0.7508 C.ar    1  UNL1       -0.0600
     13 C          11.8126   -0.9670    0.0820 C.ar    1  UNL1       -0.0614
     14 C          11.0619   -0.1398    0.9141 C.ar    1  UNL1       -0.0565
     15 C           9.6445   -0.1684    0.9011 C.ar    1  UNL1       -0.0219
     16 C           8.9899    0.7308    1.9451 C.3     1  UNL1       -0.0007
     17 C           7.5164    0.5742    2.2066 C.ar    1  UNL1       -0.0430
     18 C           6.6606    1.6662    2.0093 C.ar    1  UNL1       -0.0583
     19 C           5.2874    1.5041    2.1351 C.ar    1  UNL1       -0.0615
     20 C           4.7623    0.2275    2.3368 C.ar    1  UNL1       -0.0617
     21 C           5.6070   -0.8726    2.4528 C.ar    1  UNL1       -0.0615
     22 C           6.9791   -0.6898    2.4904 C.ar    1  UNL1       -0.0583
     23 N           4.6953   -1.2012   -0.4367 N.ar    1  UNL1       -0.1576
     24 N           3.2993   -1.1627   -0.2232 N.ar    1  UNL1       -0.2361
     25 C           2.6604   -2.4348   -0.0677 C.ar    1  UNL1        0.0662
     26 C           2.8423   -3.2885    1.0344 C.ar    1  UNL1       -0.0362
     27 C           2.1557   -4.5131    1.1224 C.ar    1  UNL1       -0.0592
     28 C           1.2663   -4.8914    0.1187 C.ar    1  UNL1       -0.0500
     29 C           1.0441   -4.0430   -0.9701 C.ar    1  UNL1        0.0568
     30 C           0.0846   -4.4225   -2.0620 C.3     1  UNL1        0.4175
     31 F           0.4604   -5.5605   -2.7040 F       1  UNL1       -0.1659
     32 F          -1.1746   -4.6434   -1.5966 F       1  UNL1       -0.1659
     33 F          -0.0377   -3.4685   -3.0274 F       1  UNL1       -0.1659
     34 C           1.7455   -2.8334   -1.0485 C.ar    1  UNL1       -0.0246
     35 H           0.6404    1.0337    0.1466 H       1  UNL1        0.0293
     36 H           0.7862   -0.5048    0.9933 H       1  UNL1        0.0293
     37 H           0.5278   -0.4436   -0.7726 H       1  UNL1        0.0293
     38 H           2.6090    2.1741   -0.2077 H       1  UNL1        0.0674
     39 H           7.1171   -1.9835   -0.1766 H       1  UNL1        0.1552
     40 H           9.2846   -2.6122   -1.4653 H       1  UNL1        0.0636
     41 H          11.7425   -2.5083   -1.4129 H       1  UNL1        0.0618
     42 H          12.8984   -0.9064    0.0845 H       1  UNL1        0.0618
     43 H          11.5915    0.5427    1.5806 H       1  UNL1        0.0621
     44 H           9.2146    1.7732    1.6829 H       1  UNL1        0.0362
     45 H           9.4701    0.5489    2.9183 H       1  UNL1        0.0362
     46 H           7.0464    2.6012    1.5988 H       1  UNL1        0.0620
     47 H           4.6347    2.3347    1.8702 H       1  UNL1        0.0618
     48 H           3.6970    0.0576    2.2131 H       1  UNL1        0.0618
     49 H           5.2138   -1.8791    2.3506 H       1  UNL1        0.0618
     50 H           7.6261   -1.5648    2.5210 H       1  UNL1        0.0620
     51 H           3.4865   -3.0163    1.8624 H       1  UNL1        0.0639
     52 H           2.3109   -5.1764    1.9731 H       1  UNL1        0.0618
     53 H           0.7469   -5.8475    0.1812 H       1  UNL1        0.0623
     54 H           1.5789   -2.1700   -1.8952 H       1  UNL1        0.0644
@<TRIPOS>BOND
     1     1     2    1
     2     2     3   ar
     3     3     4   ar
     4     4     5    2
     5     4     6   ar
     6     6     7    1
     7     7     8    2
     8     7     9   am
     9     9    10    1
    10    10    11   ar
    11    11    12   ar
    12    12    13   ar
    13    13    14   ar
    14    14    15   ar
    15    10    15   ar
    16    15    16    1
    17    16    17    1
    18    17    18   ar
    19    18    19   ar
    20    19    20   ar
    21    20    21   ar
    22    21    22   ar
    23    17    22   ar
    24     6    23   ar
    25    23    24   ar
    26     2    24   ar
    27    24    25    1
    28    25    26   ar
    29    26    27   ar
    30    27    28   ar
    31    28    29   ar
    32    29    30    1
    33    30    31    1
    34    30    32    1
    35    30    33    1
    36    29    34   ar
    37    25    34   ar
    38     1    35    1
    39     1    36    1
    40     1    37    1
    41     3    38    1
    42     9    39    1
    43    11    40    1
    44    12    41    1
    45    13    42    1
    46    14    43    1
    47    16    44    1
    48    16    45    1
    49    18    46    1
    50    19    47    1
    51    20    48    1
    52    21    49    1
    53    22    50    1
    54    26    51    1
    55    27    52    1
    56    28    53    1
    57    34    54    1
