REMARK  11 active torsions:
REMARK  status: ('A' for Active; 'I' for Inactive)
REMARK    1  A    between atoms: C_5  and  C_6 
REMARK    2  A    between atoms: C_6  and  C_8 
REMARK    3  A    between atoms: C_8  and  O_9 
REMARK    4  A    between atoms: O_9  and  C_10 
REMARK    5  A    between atoms: C_10  and  C_12 
REMARK    6  A    between atoms: C_12  and  C_13 
REMARK    7  A    between atoms: C_13  and  C_14 
REMARK       I    between atoms: C_14  and  N_16 
REMARK    8  A    between atoms: N_16  and  C_17 
REMARK    9  A    between atoms: C_20  and  S_21 
REMARK   10  A    between atoms: S_21  and  C_22 
REMARK   11  A    between atoms: C_32  and  N_33 
ROOT
ATOM      1  C   UNL d   1      -8.682   3.203  -0.157  0.00  0.00     0.113 C 
ENDROOT
BRANCH   1   2
ATOM      2  C   UNL d   1      -7.816   1.923  -0.137  0.00  0.00     0.120 C 
BRANCH   2   3
ATOM      3  C   UNL d   1      -6.335   2.233  -0.106  0.00  0.00     0.259 C 
ATOM      4  O   UNL d   1      -5.869   3.372  -0.097  0.00  0.00    -0.265 OA
BRANCH   3   5
ATOM      5  O   UNL d   1      -5.575   1.102  -0.090  0.00  0.00    -0.314 OA
BRANCH   5   6
ATOM      6  C   UNL d   1      -4.151   1.323  -0.060  0.00  0.00     0.262 C 
BRANCH   6   7
ATOM      7  C   UNL d   1      -3.355   0.008  -0.040  0.00  0.00     0.183 C 
ATOM      8  O   UNL d   1      -3.906  -1.093  -0.052  0.00  0.00    -0.290 OA
BRANCH   7   9
ATOM      9  C   UNL d   1      -1.847   0.051  -0.010  0.00  0.00     0.014 A 
ATOM     10  C   UNL d   1      -1.138  -1.160  -0.001  0.00  0.00     0.016 A 
ATOM     11  C   UNL d   1       0.265  -1.177   0.005  0.00  0.00     0.010 A 
ATOM     12  C   UNL d   1       1.007   0.016   0.003  0.00  0.00    -0.029 A 
ATOM     13  C   UNL d   1       2.510  -0.076  -0.012  0.00  0.00     0.050 C 
ATOM     14  C   UNL d   1       0.297   1.236   0.003  0.00  0.00     0.109 A 
ATOM     15  C   UNL d   1      -1.121   1.248  -0.001  0.00  0.00     0.051 A 
BRANCH  14  16
ATOM     16  N   UNL d   1       0.985   2.552  -0.000  0.00  0.00    -0.115 N 
ATOM     17  O   UNL d   1       0.271   3.564  -0.006  0.00  0.00    -0.532 OA
ATOM     18  O   UNL d   1       2.221   2.589   0.002  0.00  0.00    -0.532 OA
ENDBRANCH  14  16
ENDBRANCH   7   9
ENDBRANCH   6   7
ENDBRANCH   5   6
ENDBRANCH   3   5
ENDBRANCH   2   3
ENDBRANCH   1   2
BRANCH   1  19
ATOM     19  C   UNL d   1     -10.163   2.856  -0.187  0.00  0.00     0.222 C 
ATOM     20  O   UNL d   1     -10.525   1.680  -0.180  0.00  0.00    -0.273 OA
ATOM     21  N   UNL d   1     -11.040   3.937  -0.258  0.00  0.00    -0.327 N 
ATOM     22  H   UNL d   1     -10.686   4.862  -0.468  0.00  0.00     0.169 HD
BRANCH  21  23
ATOM     23  C   UNL d   1     -12.448   3.768  -0.220  0.00  0.00     0.034 A 
ATOM     24  C   UNL d   1     -13.304   4.570  -0.979  0.00  0.00     0.031 A 
ATOM     25  C   UNL d   1     -14.701   4.388  -0.895  0.00  0.00     0.021 A 
ATOM     26  C   UNL d   1     -15.258   3.378  -0.090  0.00  0.00     0.005 A 
ATOM     27  C   UNL d   1     -14.391   2.611   0.681  0.00  0.00     0.021 A 
ATOM     28  C   UNL d   1     -13.011   2.807   0.619  0.00  0.00     0.031 A 
BRANCH  26  29
ATOM     29  S   UNL d   1     -17.016   3.087  -0.190  0.00  0.00    -0.091 SA
BRANCH  29  30
ATOM     30  C   UNL d   1     -17.424   1.778   0.959  0.00  0.00     0.005 A 
ATOM     31  C   UNL d   1     -18.191   0.689   0.518  0.00  0.00     0.020 A 
ATOM     32  C   UNL d   1     -18.742  -0.212   1.439  0.00  0.00     0.025 A 
ATOM     33  C   UNL d   1     -18.445  -0.087   2.794  0.00  0.00     0.034 A 
ATOM     34 CL   UNL d   1     -19.054  -1.238   3.918  0.00  0.00    -0.084 Cl
ATOM     35  C   UNL d   1     -17.644   0.961   3.241  0.00  0.00     0.025 A 
ATOM     36  C   UNL d   1     -17.157   1.901   2.328  0.00  0.00     0.020 A 
ENDBRANCH  29  30
ENDBRANCH  26  29
ENDBRANCH  21  23
ENDBRANCH   1  19
TORSDOF 11
