REMARK  3 active torsions:
REMARK  status: ('A' for Active; 'I' for Inactive)
REMARK    1  A    between atoms: C_5  and  C_6 
REMARK       I    between atoms: C_6  and  N_8 
REMARK    2  A    between atoms: N_8  and  N_9 
REMARK    3  A    between atoms: C_10  and  C_11 
ROOT
ATOM      1  N   UNL d   1      -4.819   2.188   0.007  0.00  0.00    -0.183 NA
ATOM      2  C   UNL d   1      -6.033   1.709   0.017  0.00  0.00     0.152 C 
ENDROOT
BRANCH   1   3
ATOM      3  N   UNL d   1      -3.741   1.328  -0.062  0.00  0.00    -0.241 N 
ATOM      4  C   UNL d   1      -2.419   1.779  -0.004  0.00  0.00     0.295 C 
ATOM      5  O   UNL d   1      -2.129   2.977   0.049  0.00  0.00    -0.264 OA
ATOM      6  H   UNL d   1      -3.922   0.337  -0.139  0.00  0.00     0.192 HD
BRANCH   4   7
ATOM      7  C   UNL d   1      -1.414   0.709  -0.005  0.00  0.00     0.144 A 
ATOM      8  C   UNL d   1      -1.517  -0.675  -0.006  0.00  0.00     0.045 A 
ATOM      9  C   UNL d   1      -0.203  -1.202  -0.004  0.00  0.00     0.035 A 
ATOM     10  C   UNL d   1       0.650  -0.123   0.000  0.00  0.00     0.050 A 
ATOM     11  C   UNL d   1       2.129  -0.022   0.001  0.00  0.00     0.076 C 
ATOM     12  O   UNL d   1      -0.071   1.038   0.003  0.00  0.00    -0.310 OA
ENDBRANCH   4   7
ENDBRANCH   1   3
BRANCH   2  13
ATOM     13  C   UNL d   1      -6.388   0.301   0.057  0.00  0.00     0.011 A 
ATOM     14  C   UNL d   1      -7.363  -0.321  -0.702  0.00  0.00     0.102 A 
ATOM     15  N   UNL d   1      -7.326  -1.668  -0.425  0.00  0.00    -0.364 N 
ATOM     16  C   UNL d   1      -6.414  -1.919   0.577  0.00  0.00     0.043 A 
ATOM     17  H   UNL d   1      -7.897  -2.372  -0.875  0.00  0.00     0.165 HD
ATOM     18  C   UNL d   1      -6.052  -3.111   1.218  0.00  0.00     0.030 A 
ATOM     19  C   UNL d   1      -5.846  -0.696   0.920  0.00  0.00     0.004 A 
ATOM     20  C   UNL d   1      -5.092  -3.034   2.238  0.00  0.00     0.002 A 
ATOM     21  C   UNL d   1      -4.515  -1.822   2.602  0.00  0.00     0.001 A 
ATOM     22  C   UNL d   1      -4.897  -0.649   1.961  0.00  0.00     0.014 A 
ENDBRANCH   2  13
TORSDOF 3
