@<TRIPOS>MOLECULE
*****
 52 54 0 0 0
SMALL
GASTEIGER

@<TRIPOS>ATOM
      1 O           1.0179    0.5192   -0.6703 O.2     1  UNL1       -0.2739
      2 C           2.2125    0.3797   -0.3773 C.2     1  UNL1        0.2332
      3 C           2.9654   -0.7366   -1.0162 C.3     1  UNL1        0.0860
      4 N           2.1761   -1.7555   -1.6994 N.pl3   1  UNL1       -0.3338
      5 C           2.6699   -2.7936   -2.4862 C.ar    1  UNL1        0.0551
      6 C           2.0569   -2.8888   -3.7630 C.ar    1  UNL1        0.0382
      7 C           2.4132   -3.8909   -4.6735 C.ar    1  UNL1        0.2750
      8 N           1.6212   -4.1031   -5.8922 N.pl3   1  UNL1        0.0797
      9 O           0.6604   -3.3501   -6.1012 O.2     1  UNL1        0.0414
     10 O           1.9415   -5.0502   -6.6272 O.co2   1  UNL1       -0.5760
     11 C           3.4649   -4.7539   -4.3886 C.ar    1  UNL1        0.0174
     12 C           4.0720   -4.6904   -3.1359 C.ar    1  UNL1       -0.0326
     13 C           3.6954   -3.7474   -2.1508 C.ar    1  UNL1        0.0488
     14 N           4.2548   -4.0327   -0.8669 N.pl3   1  UNL1       -0.3402
     15 C           4.1281   -3.0117    0.1283 C.3     1  UNL1        0.0323
     16 C           4.8474   -3.0755    1.4568 C.3     1  UNL1        0.0596
     17 O           4.2637   -2.1569    2.3982 O.3     1  UNL1       -0.3935
     18 N           2.9449    1.0199    0.6783 N.am    1  UNL1       -0.2928
     19 C           2.2582    1.8358    1.6886 C.3     1  UNL1        0.0400
     20 C           0.7751    1.6444    1.7828 C.ar    1  UNL1       -0.0301
     21 C          -0.0797    2.7370    1.6134 C.ar    1  UNL1       -0.0571
     22 C          -1.4543    2.5315    1.5737 C.ar    1  UNL1       -0.0615
     23 C          -1.9661    1.2331    1.5536 C.ar    1  UNL1       -0.0617
     24 C          -1.1174    0.1404    1.6990 C.ar    1  UNL1       -0.0615
     25 C           0.2388    0.3509    1.9084 C.ar    1  UNL1       -0.0571
     26 C           4.4128    1.0086    0.7683 C.3     1  UNL1        0.0265
     27 C           5.2225    1.9777   -0.0401 C.3     1  UNL1       -0.0326
     28 C           5.2059    2.1055    1.4546 C.3     1  UNL1       -0.0326
     29 H           3.2262   -1.1457   -0.0616 H       1  UNL1        0.0557
     30 H           3.8233   -0.3867   -1.5885 H       1  UNL1        0.0557
     31 H           1.1657   -1.6750   -1.5836 H       1  UNL1        0.1466
     32 H           1.2885   -2.1630   -4.0336 H       1  UNL1        0.0704
     33 H           3.7934   -5.5079   -5.0996 H       1  UNL1        0.0686
     34 H           4.8274   -5.4371   -2.8990 H       1  UNL1        0.0639
     35 H           5.1690   -4.4679   -0.9108 H       1  UNL1        0.1462
     36 H           3.0600   -2.9333    0.3644 H       1  UNL1        0.0484
     37 H           4.6179   -2.1526   -0.3366 H       1  UNL1        0.0484
     38 H           5.8972   -2.7978    1.3229 H       1  UNL1        0.0573
     39 H           4.7615   -4.0652    1.8909 H       1  UNL1        0.0573
     40 H           4.4088   -1.2391    2.1219 H       1  UNL1        0.2095
     41 H           2.5044    2.8773    1.4585 H       1  UNL1        0.0514
     42 H           2.6828    1.6020    2.6756 H       1  UNL1        0.0514
     43 H           0.3199    3.7379    1.4627 H       1  UNL1        0.0621
     44 H          -2.1249    3.3822    1.5161 H       1  UNL1        0.0618
     45 H          -3.0275    1.0707    1.3984 H       1  UNL1        0.0618
     46 H          -1.4915   -0.8741    1.5964 H       1  UNL1        0.0618
     47 H           0.9002   -0.5106    1.9777 H       1  UNL1        0.0621
     48 H           4.8591    0.0210    0.8203 H       1  UNL1        0.0500
     49 H           4.6701    2.6928   -0.6353 H       1  UNL1        0.0284
     50 H           6.1272    1.6071   -0.5094 H       1  UNL1        0.0284
     51 H           4.7042    2.9664    1.8813 H       1  UNL1        0.0284
     52 H           6.1064    1.8490    2.0069 H       1  UNL1        0.0284
@<TRIPOS>UNITY_ATOM_ATTR
8 1
charge 1
10 1
charge -1
@<TRIPOS>BOND
     1     1     2    2
     2     2     3    1
     3     3     4    1
     4     4     5    1
     5     5     6   ar
     6     6     7   ar
     7     7     8    1
     8     8     9    2
     9     8    10    1
    10     7    11   ar
    11    11    12   ar
    12    12    13   ar
    13     5    13   ar
    14    13    14    1
    15    14    15    1
    16    15    16    1
    17    16    17    1
    18     2    18   am
    19    18    19    1
    20    19    20    1
    21    20    21   ar
    22    21    22   ar
    23    22    23   ar
    24    23    24   ar
    25    24    25   ar
    26    20    25   ar
    27    18    26    1
    28    26    27    1
    29    27    28    1
    30    26    28    1
    31     3    29    1
    32     3    30    1
    33     4    31    1
    34     6    32    1
    35    11    33    1
    36    12    34    1
    37    14    35    1
    38    15    36    1
    39    15    37    1
    40    16    38    1
    41    16    39    1
    42    17    40    1
    43    19    41    1
    44    19    42    1
    45    21    43    1
    46    22    44    1
    47    23    45    1
    48    24    46    1
    49    25    47    1
    50    26    48    1
    51    27    49    1
    52    27    50    1
    53    28    51    1
    54    28    52    1
