REMARK  10 active torsions:
REMARK  status: ('A' for Active; 'I' for Inactive)
REMARK       I    between atoms: C_2  and  N_3 
REMARK       I    between atoms: C_2  and  N_14 
REMARK    1  A    between atoms: N_3  and  C_4 
REMARK    2  A    between atoms: C_4  and  C_5 
REMARK    3  A    between atoms: C_5  and  C_6 
REMARK    4  A    between atoms: C_6  and  O_7 
REMARK    5  A    between atoms: O_7  and  C_8 
REMARK    6  A    between atoms: C_8  and  C_9 
REMARK    7  A    between atoms: N_14  and  N_15 
REMARK    8  A    between atoms: N_15  and  C_16 
REMARK    9  A    between atoms: C_19  and  O_20 
REMARK   10  A    between atoms: O_20  and  C_21 
ROOT
ATOM      1  O   UNL d   1       1.056   0.004  -0.046  0.00  0.00    -0.246 OA
ATOM      2  C   UNL d   1       2.288   0.034  -0.102  0.00  0.00     0.330 C 
ATOM      3  N   UNL d   1       2.971   1.027  -0.757  0.00  0.00    -0.342 N 
ATOM      4  N   UNL d   1       3.039  -0.987   0.462  0.00  0.00    -0.269 N 
ATOM      5  H   UNL d   1       3.974   1.024  -0.747  0.00  0.00     0.164 HD
ATOM      6  H   UNL d   1       2.490  -1.578   1.083  0.00  0.00     0.185 HD
ENDROOT
BRANCH   4   7
ATOM      7  N   UNL d   1       4.374  -0.791   0.864  0.00  0.00    -0.202 NA
ATOM      8  H   UNL d   1       4.943  -0.332   0.156  0.00  0.00     0.153 HD
BRANCH   7   9
ATOM      9  C   UNL d   1       5.096  -1.920   1.352  0.00  0.00     0.028 A 
ATOM     10  C   UNL d   1       6.322  -1.647   1.977  0.00  0.00     0.028 A 
ATOM     11  C   UNL d   1       7.163  -2.666   2.445  0.00  0.00     0.039 A 
ATOM     12  C   UNL d   1       6.772  -4.001   2.364  0.00  0.00     0.078 A 
ATOM     13  C   UNL d   1       5.554  -4.294   1.746  0.00  0.00     0.039 A 
ATOM     14  C   UNL d   1       4.723  -3.265   1.244  0.00  0.00     0.028 A 
BRANCH  12  15
ATOM     15  O   UNL d   1       7.639  -4.897   2.926  0.00  0.00    -0.255 OA
BRANCH  15  16
ATOM     16  C   UNL d   1       7.240  -6.259   2.974  0.00  0.00     0.530 C 
ATOM     17  F   UNL d   1       6.062  -6.407   3.617  0.00  0.00    -0.144 F 
ATOM     18  F   UNL d   1       7.140  -6.772   1.728  0.00  0.00    -0.144 F 
ATOM     19  F   UNL d   1       8.172  -6.972   3.646  0.00  0.00    -0.144 F 
ENDBRANCH  15  16
ENDBRANCH  12  15
ENDBRANCH   7   9
ENDBRANCH   4   7
BRANCH   3  20
ATOM     20  C   UNL d   1       2.278   2.086  -1.482  0.00  0.00     0.126 C 
BRANCH  20  21
ATOM     21  C   UNL d   1       3.228   3.068  -2.170  0.00  0.00     0.046 C 
BRANCH  21  22
ATOM     22  C   UNL d   1       2.456   4.148  -2.927  0.00  0.00     0.169 C 
BRANCH  22  23
ATOM     23  O   UNL d   1       3.377   5.043  -3.555  0.00  0.00    -0.389 OA
BRANCH  23  24
ATOM     24  C   UNL d   1       2.683   6.087  -4.261  0.00  0.00     0.199 C 
BRANCH  24  25
ATOM     25  C   UNL d   1       3.694   7.040  -4.912  0.00  0.00     0.145 C 
ATOM     26  C   UNL d   1       3.349   8.509  -4.707  0.00  0.00     0.036 C 
ATOM     27  C   UNL d   1       3.919   9.162  -5.939  0.00  0.00     0.029 C 
ATOM     28  C   UNL d   1       3.712   8.107  -7.000  0.00  0.00     0.168 C 
ATOM     29  O   UNL d   1       3.723   6.834  -6.342  0.00  0.00    -0.384 OA
ENDBRANCH  24  25
ENDBRANCH  23  24
ENDBRANCH  22  23
ENDBRANCH  21  22
ENDBRANCH  20  21
ENDBRANCH   3  20
TORSDOF 10
