REMARK  4 active torsions:
REMARK  status: ('A' for Active; 'I' for Inactive)
REMARK    1  A    between atoms: N_1  and  C_2 
REMARK    2  A    between atoms: C_7  and  N_8 
REMARK       I    between atoms: N_8  and  C_9 
REMARK    3  A    between atoms: C_9  and  C_11 
REMARK    4  A    between atoms: C_13  and  C_14 
ROOT
ATOM      1  C   UNL d   1      -1.440  -0.898  -0.034  0.00  0.00     0.036 C 
ATOM      2  C   UNL d   1      -2.445   0.088  -0.050  0.00  0.00     0.030 C 
ATOM      3  C   UNL d   1      -2.106   1.402  -0.021  0.00  0.00     0.003 C 
ATOM      4  C   UNL d   1      -0.773   1.689   0.085  0.00  0.00     0.014 C 
ATOM      5  C   UNL d   1       0.296   0.824  -0.017  0.00  0.00     0.003 A 
ATOM      6  C   UNL d   1       1.619   1.330  -0.035  0.00  0.00     0.045 A 
ATOM      7  C   UNL d   1       2.659   0.369  -0.011  0.00  0.00     0.030 A 
ATOM      8  C   UNL d   1       2.371  -1.012  -0.011  0.00  0.00     0.003 A 
ATOM      9  C   UNL d   1       1.043  -1.461  -0.029  0.00  0.00     0.014 A 
ATOM     10  C   UNL d   1      -0.038  -0.549  -0.037  0.00  0.00     0.003 A 
ENDROOT
BRANCH   6  11
ATOM     11  N   UNL d   1       1.972   2.747  -0.063  0.00  0.00    -0.326 N 
ATOM     12  C   UNL d   1       1.197   3.948  -0.142  0.00  0.00     0.227 C 
ATOM     13  O   UNL d   1       0.041   4.176  -0.360  0.00  0.00    -0.273 OA
ATOM     14  H   UNL d   1       2.969   2.903  -0.030  0.00  0.00     0.169 HD
BRANCH  12  15
ATOM     15  C   UNL d   1       2.008   5.161   0.073  0.00  0.00     0.087 A 
ATOM     16  C   UNL d   1       1.613   6.582   0.372  0.00  0.00     0.025 A 
ATOM     17  C   UNL d   1       1.907   6.219  -1.051  0.00  0.00     0.032 A 
BRANCH  17  18
ATOM     18  C   UNL d   1       0.754   6.393  -2.083  0.00  0.00    -0.053 A 
ATOM     19  C   UNL d   1       1.028   6.289  -3.459  0.00  0.00     0.007 A 
ATOM     20  C   UNL d   1       0.095   6.660  -4.440  0.00  0.00     0.001 A 
ATOM     21  C   UNL d   1      -1.191   7.046  -4.077  0.00  0.00     0.000 A 
ATOM     22  C   UNL d   1      -1.525   7.104  -2.732  0.00  0.00     0.001 A 
ATOM     23  C   UNL d   1      -0.566   6.788  -1.758  0.00  0.00     0.007 A 
ENDBRANCH  17  18
ENDBRANCH  12  15
ENDBRANCH   6  11
BRANCH   1  24
ATOM     24  N   UNL d   1      -1.894  -2.208   0.020  0.00  0.00    -0.398 N 
ATOM     25  H   UNL d   1      -2.893  -2.366   0.015  0.00  0.00     0.156 HD
ATOM     26  H   UNL d   1      -1.262  -2.988  -0.005  0.00  0.00     0.156 HD
ENDBRANCH   1  24
TORSDOF 4
