@<TRIPOS>MOLECULE
*****
 66 68 0 0 0
SMALL
GASTEIGER

@<TRIPOS>ATOM
      1 C           3.1099   -0.1780    1.5608 C.3     1  UNL1       -0.0380
      2 C           2.4571   -0.0679    0.1929 C.3     1  UNL1        0.0997
      3 N           0.9718   -0.0220    0.2813 N.am    1  UNL1       -0.2701
      4 C           0.2546   -0.8071    1.1540 C.2     1  UNL1        0.4012
      5 O           0.7442   -1.4913    2.0520 O.2     1  UNL1       -0.2265
      6 O          -1.0904   -0.7093    0.9699 O.3     1  UNL1       -0.4456
      7 C          -1.8130   -1.4463    1.9809 C.3     1  UNL1        0.1191
      8 C          -3.3111   -1.2989    1.8419 C.ar    1  UNL1       -0.0103
      9 C          -3.8664   -0.0624    1.4949 C.ar    1  UNL1       -0.0554
     10 C          -5.2448    0.1382    1.5547 C.ar    1  UNL1       -0.0614
     11 C          -6.0921   -0.9175    1.8835 C.ar    1  UNL1       -0.0617
     12 C          -5.5575   -2.1631    2.2056 C.ar    1  UNL1       -0.0614
     13 C          -4.1723   -2.3500    2.2019 C.ar    1  UNL1       -0.0554
     14 C           2.9400   -1.2799   -0.6329 C.2     1  UNL1        0.2338
     15 O           2.1479   -2.1910   -0.8572 O.2     1  UNL1       -0.2738
     16 N           4.2779   -1.3105   -1.0333 N.am    1  UNL1       -0.3002
     17 C           4.8622   -2.3944   -1.9019 C.3     1  UNL1        0.1295
     18 C           4.4057   -2.2582   -3.3882 C.3     1  UNL1        0.0228
     19 S           2.6269   -2.6198   -3.5257 S.3     1  UNL1       -0.1537
     20 C           2.0461   -1.9868   -5.1156 C.3     1  UNL1        0.0189
     21 C           0.5228   -1.9688   -5.0673 C.ar    1  UNL1       -0.0376
     22 C          -0.2040   -0.7721   -4.9718 C.ar    1  UNL1       -0.0578
     23 C          -1.5896   -0.7971   -4.7632 C.ar    1  UNL1       -0.0615
     24 C          -2.2745   -2.0110   -4.7179 C.ar    1  UNL1       -0.0617
     25 C          -1.5696   -3.2058   -4.8186 C.ar    1  UNL1       -0.0615
     26 C          -0.1840   -3.1839   -4.9833 C.ar    1  UNL1       -0.0578
     27 C           6.4218   -2.3625   -1.8410 C.2     1  UNL1        0.3288
     28 O           7.0560   -1.5656   -1.1556 O.2     1  UNL1       -0.2487
     29 O           7.0005   -3.3293   -2.6161 O.3     1  UNL1       -0.4586
     30 C           8.4506   -3.3593   -2.6294 C.3     1  UNL1        0.1176
     31 C           8.9367   -4.4939   -3.5128 C.ar    1  UNL1       -0.0103
     32 C           8.4276   -5.7860   -3.3192 C.ar    1  UNL1       -0.0554
     33 C           8.9076   -6.8672   -4.0609 C.ar    1  UNL1       -0.0614
     34 C           9.8561   -6.6634   -5.0588 C.ar    1  UNL1       -0.0617
     35 C          10.3817   -5.3890   -5.2624 C.ar    1  UNL1       -0.0614
     36 C           9.9410   -4.3124   -4.4803 C.ar    1  UNL1       -0.0554
     37 H           4.1959   -0.0896    1.5071 H       1  UNL1        0.0252
     38 H           2.9288   -1.1723    1.9822 H       1  UNL1        0.0252
     39 H           2.7081    0.5734    2.2443 H       1  UNL1        0.0252
     40 H           2.7644    0.8600   -0.3099 H       1  UNL1        0.0593
     41 H           0.4479    0.2979   -0.5254 H       1  UNL1        0.1528
     42 H          -1.5514   -1.0576    2.9771 H       1  UNL1        0.0749
     43 H          -1.5399   -2.5086    1.9346 H       1  UNL1        0.0749
     44 H          -3.2182    0.7562    1.1927 H       1  UNL1        0.0621
     45 H          -5.6533    1.1254    1.3596 H       1  UNL1        0.0618
     46 H          -7.1680   -0.7661    1.8901 H       1  UNL1        0.0618
     47 H          -6.2187   -2.9809    2.4821 H       1  UNL1        0.0618
     48 H          -3.7721   -3.3202    2.4911 H       1  UNL1        0.0621
     49 H           4.9568   -0.7395   -0.5370 H       1  UNL1        0.1496
     50 H           4.5509   -3.3569   -1.4725 H       1  UNL1        0.0623
     51 H           4.9067   -3.0054   -4.0086 H       1  UNL1        0.0400
     52 H           4.6652   -1.2603   -3.7585 H       1  UNL1        0.0400
     53 H           2.3762   -2.6989   -5.8751 H       1  UNL1        0.0425
     54 H           2.4413   -0.9944   -5.3556 H       1  UNL1        0.0425
     55 H           0.2988    0.1893   -5.0326 H       1  UNL1        0.0621
     56 H          -2.1381    0.1299   -4.6143 H       1  UNL1        0.0618
     57 H          -3.3540   -2.0272   -4.5921 H       1  UNL1        0.0618
     58 H          -2.0896   -4.1564   -4.7368 H       1  UNL1        0.0618
     59 H           0.3582   -4.1275   -4.9950 H       1  UNL1        0.0621
     60 H           8.8370   -3.5291   -1.6155 H       1  UNL1        0.0749
     61 H           8.8325   -2.4017   -3.0025 H       1  UNL1        0.0749
     62 H           7.6458   -5.9552   -2.5828 H       1  UNL1        0.0621
     63 H           8.5389   -7.8690   -3.8566 H       1  UNL1        0.0618
     64 H          10.1828   -7.4980   -5.6746 H       1  UNL1        0.0618
     65 H          11.1423   -5.2396   -6.0263 H       1  UNL1        0.0618
     66 H          10.3900   -3.3349   -4.6449 H       1  UNL1        0.0621
@<TRIPOS>BOND
     1     3     4   am
     2     4     5    2
     3     4     6    1
     4     6     7    1
     5     7     8    1
     6     8     9   ar
     7     9    10   ar
     8    10    11   ar
     9    11    12   ar
    10    12    13   ar
    11     8    13   ar
    12     2    14    1
    13    14    15    2
    14    14    16   am
    15    16    17    1
    16    17    18    1
    17    18    19    1
    18    19    20    1
    19    20    21    1
    20    21    22   ar
    21    22    23   ar
    22    23    24   ar
    23    24    25   ar
    24    25    26   ar
    25    21    26   ar
    26    17    27    1
    27    27    28    2
    28    27    29    1
    29    29    30    1
    30    30    31    1
    31    31    32   ar
    32    32    33   ar
    33    33    34   ar
    34    34    35   ar
    35    35    36   ar
    36    31    36   ar
    37     2     3    1
    38     2     1    1
    39     1    37    1
    40     1    38    1
    41     1    39    1
    42     2    40    1
    43     3    41    1
    44     7    42    1
    45     7    43    1
    46     9    44    1
    47    10    45    1
    48    11    46    1
    49    12    47    1
    50    13    48    1
    51    16    49    1
    52    17    50    1
    53    18    51    1
    54    18    52    1
    55    20    53    1
    56    20    54    1
    57    22    55    1
    58    23    56    1
    59    24    57    1
    60    25    58    1
    61    26    59    1
    62    30    60    1
    63    30    61    1
    64    32    62    1
    65    33    63    1
    66    34    64    1
    67    35    65    1
    68    36    66    1
