@<TRIPOS>MOLECULE
*****
 37 39 0 0 0
SMALL
GASTEIGER

@<TRIPOS>ATOM
      1 O           1.0219   -0.0213    0.0448 O.2     1  UNL1       -0.2683
      2 C           2.2545   -0.0099    0.1204 C.2     1  UNL1        0.2668
      3 N           2.9841   -0.7218    1.0773 N.am    1  UNL1       -0.2029
      4 N           2.2760   -1.4264    2.0286 N.2     1  UNL1       -0.1873
      5 C           2.9122   -2.0556    2.9652 C.2     1  UNL1        0.0563
      6 C           2.1832   -2.8029    4.0354 C.ar    1  UNL1        0.0366
      7 C           2.5727   -2.6156    5.3641 C.ar    1  UNL1       -0.0490
      8 C           1.8623   -3.2385    6.4016 C.ar    1  UNL1       -0.0532
      9 C           0.7686   -4.0828    6.1363 C.ar    1  UNL1       -0.0144
     10 C           0.0626   -4.7032    7.1891 C.ar    1  UNL1       -0.0539
     11 C          -1.0105   -5.5585    6.9354 C.ar    1  UNL1       -0.0612
     12 C          -1.3940   -5.8056    5.6265 C.ar    1  UNL1       -0.0611
     13 C          -0.7091   -5.1951    4.5735 C.ar    1  UNL1       -0.0505
     14 C           0.3820   -4.3169    4.7925 C.ar    1  UNL1        0.0242
     15 C           1.1124   -3.6664    3.7538 C.ar    1  UNL1        0.1331
     16 O           0.8404   -3.9190    2.4325 O.3     1  UNL1       -0.5055
     17 C           3.0095    0.7981   -0.8863 C.ar    1  UNL1        0.0797
     18 C           4.0343    0.2317   -1.6602 C.ar    1  UNL1       -0.0460
     19 C           4.6228    0.9686   -2.7023 C.ar    1  UNL1       -0.0608
     20 C           4.1970    2.2692   -2.9792 C.ar    1  UNL1       -0.0583
     21 C           3.1826    2.8435   -2.2145 C.ar    1  UNL1       -0.0194
     22 C           2.5961    2.1111   -1.1757 C.ar    1  UNL1        0.1290
     23 O           1.6292    2.7033   -0.4103 O.3     1  UNL1       -0.5060
     24 H           3.9942   -0.6789    1.1270 H       1  UNL1        0.1776
     25 H           4.0134   -2.0394    3.0433 H       1  UNL1        0.0852
     26 H           3.4047   -1.9629    5.6136 H       1  UNL1        0.0625
     27 H           2.1641   -3.0499    7.4318 H       1  UNL1        0.0624
     28 H           0.3443   -4.5268    8.2261 H       1  UNL1        0.0624
     29 H          -1.5452   -6.0315    7.7555 H       1  UNL1        0.0618
     30 H          -2.2275   -6.4706    5.4139 H       1  UNL1        0.0618
     31 H          -1.0584   -5.4252    3.5723 H       1  UNL1        0.0625
     32 H          -0.0181   -4.3518    2.3387 H       1  UNL1        0.2922
     33 H           4.3497   -0.7954   -1.5011 H       1  UNL1        0.0626
     34 H           5.4005    0.5223   -3.3201 H       1  UNL1        0.0618
     35 H           4.6505    2.8329   -3.7932 H       1  UNL1        0.0619
     36 H           2.8611    3.8570   -2.4398 H       1  UNL1        0.0654
     37 H           1.3333    3.5314   -0.8174 H       1  UNL1        0.2922
@<TRIPOS>BOND
     1     1     2    2
     2     2     3   am
     3     3     4    1
     4     4     5    2
     5     5     6    1
     6     6     7   ar
     7     7     8   ar
     8     8     9   ar
     9     9    10   ar
    10    10    11   ar
    11    11    12   ar
    12    12    13   ar
    13    13    14   ar
    14     9    14   ar
    15    14    15   ar
    16     6    15   ar
    17    15    16    1
    18     2    17    1
    19    17    18   ar
    20    18    19   ar
    21    19    20   ar
    22    20    21   ar
    23    21    22   ar
    24    17    22   ar
    25    22    23    1
    26     3    24    1
    27     5    25    1
    28     7    26    1
    29     8    27    1
    30    10    28    1
    31    11    29    1
    32    12    30    1
    33    13    31    1
    34    16    32    1
    35    18    33    1
    36    19    34    1
    37    20    35    1
    38    21    36    1
    39    23    37    1
