@<TRIPOS>MOLECULE
*****
 66 68 0 0 0
SMALL
GASTEIGER

@<TRIPOS>ATOM
      1 C          -0.0314    8.9073   -1.1213 C.3     1  UNL1       -0.0397
      2 C           0.5417    7.7034   -1.7903 C.ar    1  UNL1       -0.0487
      3 C           1.3501    7.8536   -2.8824 C.ar    1  UNL1       -0.0585
      4 C           1.6195    6.7191   -3.5808 C.ar    1  UNL1       -0.0568
      5 C           1.0800    5.4862   -3.1576 C.ar    1  UNL1       -0.0290
      6 C           1.1031    4.4677   -4.1764 C.3     1  UNL1       -0.0379
      7 C           0.5306    5.1820   -1.9249 C.ar    1  UNL1        0.0409
      8 N           0.2043    3.8044   -1.3669 N.am    1  UNL1       -0.2506
      9 C           0.9162    2.4260   -1.7625 C.2     1  UNL1        0.2617
     10 O           0.5266    1.4054   -1.1920 O.2     1  UNL1       -0.2689
     11 C           2.0773    2.2202   -2.7646 C.ar    1  UNL1        0.1156
     12 S           1.8200    1.3178   -4.2580 S.2     1  UNL1        0.0190
     13 N           3.0000    2.1068   -5.1871 N.ar    1  UNL1       -0.2031
     14 C           3.7065    2.9302   -4.3877 C.ar    1  UNL1        0.1554
     15 C           4.6021    3.9877   -4.9489 C.2     1  UNL1        0.2624
     16 N           5.0357    3.9377   -6.2316 N.am    1  UNL1       -0.3240
     17 O           4.9468    4.9929   -4.2648 O.2     1  UNL1       -0.2687
     18 C           3.2822    2.9149   -2.9639 C.ar    1  UNL1        0.0765
     19 N           3.6980    3.9006   -2.1100 N.pl3   1  UNL1       -0.3551
     20 C          -0.7031    3.7169   -0.0353 C.3     1  UNL1        0.1323
     21 C          -1.5877    2.4124   -0.0331 C.2     1  UNL1        0.2385
     22 O          -2.0700    1.9289   -1.0603 O.2     1  UNL1       -0.2734
     23 N          -2.0659    2.0526    1.2342 N.am    1  UNL1       -0.3135
     24 C          -3.3381    1.3699    1.2883 C.3     1  UNL1        0.0119
     25 C          -3.8976    1.2554    2.6977 C.3     1  UNL1       -0.0350
     26 C          -5.2357    0.4974    2.7090 C.3     1  UNL1       -0.0453
     27 C          -5.0829   -0.9018    2.1105 C.3     1  UNL1       -0.0626
     28 C          -5.7607    0.3898    4.1383 C.3     1  UNL1       -0.0626
     29 C          -1.7871    4.8627    0.3201 C.ar    1  UNL1       -0.0177
     30 C          -3.1622    4.6798    0.0153 C.ar    1  UNL1       -0.0536
     31 C          -4.0948    5.7188    0.0119 C.ar    1  UNL1       -0.0261
     32 C          -3.6466    7.0033    0.1874 C.ar    1  UNL1        0.1234
     33 F          -4.4554    8.0398   -0.0651 F       1  UNL1       -0.2055
     34 C          -2.3502    7.2137    0.6246 C.ar    1  UNL1       -0.0261
     35 C          -1.4682    6.1254    0.8638 C.ar    1  UNL1       -0.0536
     36 C           0.1414    6.3909   -1.4119 C.ar    1  UNL1       -0.0371
     37 H           0.3695    9.8254   -1.5569 H       1  UNL1        0.0278
     38 H           0.2252    8.8959   -0.0577 H       1  UNL1        0.0278
     39 H          -1.1148    8.9315   -1.2622 H       1  UNL1        0.0278
     40 H           1.6295    8.8203   -3.2785 H       1  UNL1        0.0620
     41 H           2.1979    6.7560   -4.4981 H       1  UNL1        0.0621
     42 H           1.8488    4.5848   -4.9494 H       1  UNL1        0.0278
     43 H           0.2177    3.8730   -4.3680 H       1  UNL1        0.0278
     44 H           1.6043    3.9256   -3.4634 H       1  UNL1        0.0278
     45 H           4.7380    3.2158   -6.8776 H       1  UNL1        0.1453
     46 H           5.7498    4.6007   -6.5141 H       1  UNL1        0.1453
     47 H           4.1108    4.7171   -2.5908 H       1  UNL1        0.1424
     48 H           3.0015    4.2769   -1.4707 H       1  UNL1        0.1424
     49 H           0.0034    3.6557    0.8051 H       1  UNL1        0.0651
     50 H          -1.7468    2.5519    2.0553 H       1  UNL1        0.1487
     51 H          -3.1757    0.3994    0.8184 H       1  UNL1        0.0462
     52 H          -4.0682    1.9062    0.6694 H       1  UNL1        0.0462
     53 H          -4.0440    2.2599    3.1202 H       1  UNL1        0.0283
     54 H          -3.1676    0.7508    3.3402 H       1  UNL1        0.0283
     55 H          -5.9706    1.0554    2.1124 H       1  UNL1        0.0296
     56 H          -4.3282   -1.4732    2.6612 H       1  UNL1        0.0232
     57 H          -4.7789   -0.8641    1.0605 H       1  UNL1        0.0232
     58 H          -6.0282   -1.4492    2.1404 H       1  UNL1        0.0232
     59 H          -5.0518   -0.1534    4.7723 H       1  UNL1        0.0232
     60 H          -6.7156   -0.1453    4.1607 H       1  UNL1        0.0232
     61 H          -5.9178    1.3813    4.5750 H       1  UNL1        0.0232
     62 H          -3.5665    3.7141   -0.2646 H       1  UNL1        0.0622
     63 H          -5.1399    5.5229   -0.1974 H       1  UNL1        0.0646
     64 H          -1.9927    8.2404    0.6407 H       1  UNL1        0.0646
     65 H          -0.4392    6.3722    1.1344 H       1  UNL1        0.0622
     66 H          -0.8399    6.3879   -1.0275 H       1  UNL1        0.0639
@<TRIPOS>BOND
     1     1     2    1
     2     2     3   ar
     3     3     4   ar
     4     4     5   ar
     5     5     6    1
     6     5     7   ar
     7     7     8    1
     8     8     9   am
     9     9    10    2
    10     9    11    1
    11    11    12   ar
    12    12    13   ar
    13    13    14   ar
    14    14    15    1
    15    15    16   am
    16    15    17    2
    17    14    18   ar
    18    11    18   ar
    19    18    19    1
    20    21    22    2
    21    21    23   am
    22    23    24    1
    23    24    25    1
    24    25    26    1
    25    26    27    1
    26    26    28    1
    27    20    29    1
    28    29    30   ar
    29    30    31   ar
    30    31    32   ar
    31    32    33    1
    32    32    34   ar
    33    34    35   ar
    34    29    35   ar
    35     7    36   ar
    36     2    36   ar
    37    20    21    1
    38    20     8    1
    39     1    37    1
    40     1    38    1
    41     1    39    1
    42     3    40    1
    43     4    41    1
    44     6    42    1
    45     6    43    1
    46     6    44    1
    47    16    45    1
    48    16    46    1
    49    19    47    1
    50    19    48    1
    51    20    49    1
    52    23    50    1
    53    24    51    1
    54    24    52    1
    55    25    53    1
    56    25    54    1
    57    26    55    1
    58    27    56    1
    59    27    57    1
    60    27    58    1
    61    28    59    1
    62    28    60    1
    63    28    61    1
    64    30    62    1
    65    31    63    1
    66    34    64    1
    67    35    65    1
    68    36    66    1
