@<TRIPOS>MOLECULE
*****
 54 57 0 0 0
SMALL
GASTEIGER

@<TRIPOS>ATOM
      1 O           1.1118    0.0966    0.1083 O.2     1  UNL1       -0.2732
      2 C           2.3394   -0.0244    0.0559 C.2     1  UNL1        0.2424
      3 C           3.0642   -1.2996   -0.4020 C.3     1  UNL1        0.0784
      4 S           1.8013   -2.5216   -0.8788 S.3     1  UNL1       -0.0876
      5 C           2.6792   -3.9518   -1.3007 C.ar    1  UNL1        0.1597
      6 N           3.8117   -3.9741   -1.9654 N.ar    1  UNL1       -0.1339
      7 N           4.2006   -5.2752   -2.2352 N.ar    1  UNL1       -0.1339
      8 C           3.3666   -6.1623   -1.7250 C.ar    1  UNL1        0.1596
      9 S           3.8310   -7.8121   -1.6768 S.3     1  UNL1       -0.0923
     10 C           2.4451   -8.9243   -1.3929 C.3     1  UNL1        0.0259
     11 C           2.7008  -10.4227   -1.6824 C.ar    1  UNL1       -0.0295
     12 C           1.7868  -11.3243   -1.0804 C.ar    1  UNL1       -0.0572
     13 C           1.9226  -12.7050   -1.2279 C.ar    1  UNL1       -0.0609
     14 C           2.9703  -13.2216   -1.9846 C.ar    1  UNL1       -0.0540
     15 C           3.8782  -12.3756   -2.6386 C.ar    1  UNL1       -0.0176
     16 C           4.9069  -12.9321   -3.4354 C.ar    1  UNL1       -0.0540
     17 C           5.8394  -12.1385   -4.1044 C.ar    1  UNL1       -0.0612
     18 C           5.7464  -10.7751   -4.0022 C.ar    1  UNL1       -0.0612
     19 C           4.7126  -10.2292   -3.2553 C.ar    1  UNL1       -0.0537
     20 C           3.7531  -10.9680   -2.5129 C.ar    1  UNL1       -0.0139
     21 S           2.0065   -5.4972   -0.9673 S.2     1  UNL1       -0.0330
     22 N           3.1037    1.0550    0.4382 N.am    1  UNL1       -0.2063
     23 N           4.4522    1.0028    0.5670 N.2     1  UNL1       -0.1883
     24 C           5.0313    2.0947    0.9657 C.2     1  UNL1        0.0457
     25 C           6.5030    2.1128    1.1369 C.2     1  UNL1       -0.0414
     26 C           7.2290    3.2187    1.3617 C.2     1  UNL1       -0.0466
     27 C           8.7072    3.2297    1.2142 C.ar    1  UNL1        0.0521
     28 C           9.4439    3.8446    2.2538 C.ar    1  UNL1       -0.0481
     29 C          10.8362    4.0088    2.1742 C.ar    1  UNL1       -0.0608
     30 C          11.5382    3.5030    1.0887 C.ar    1  UNL1       -0.0553
     31 C          10.8449    2.8825    0.0542 C.ar    1  UNL1        0.0162
     32 C           9.4374    2.7580    0.0942 C.ar    1  UNL1        0.2802
     33 N           8.8256    2.1441   -1.1081 N.pl3   1  UNL1        0.0802
     34 O           9.5736    1.5527   -1.8898 O.2     1  UNL1        0.0415
     35 O           7.6046    2.2714   -1.3035 O.co2   1  UNL1       -0.5760
     36 H           3.6740   -1.6850    0.4222 H       1  UNL1        0.0476
     37 H           3.7004   -1.0693   -1.2616 H       1  UNL1        0.0476
     38 H           1.5239   -8.6273   -1.9111 H       1  UNL1        0.0429
     39 H           2.2643   -8.8344   -0.3150 H       1  UNL1        0.0429
     40 H           0.9538  -10.9556   -0.4814 H       1  UNL1        0.0621
     41 H           1.2156  -13.3837   -0.7539 H       1  UNL1        0.0618
     42 H           3.0692  -14.3026   -2.0716 H       1  UNL1        0.0624
     43 H           4.9885  -14.0095   -3.5517 H       1  UNL1        0.0624
     44 H           6.6239  -12.5694   -4.7154 H       1  UNL1        0.0618
     45 H           6.4383  -10.1002   -4.4987 H       1  UNL1        0.0618
     46 H           4.7164   -9.1580   -3.3247 H       1  UNL1        0.0624
     47 H           2.5826    1.8761    0.7294 H       1  UNL1        0.1772
     48 H           4.4912    3.0396    1.1599 H       1  UNL1        0.0845
     49 H           6.9730    1.1623    0.9063 H       1  UNL1        0.0633
     50 H           6.7660    4.1813    1.5709 H       1  UNL1        0.0626
     51 H           8.9467    4.2063    3.1543 H       1  UNL1        0.0626
     52 H          11.3771    4.5371    2.9585 H       1  UNL1        0.0618
     53 H          12.6217    3.5913    1.0383 H       1  UNL1        0.0620
     54 H          11.4155    2.5155   -0.7973 H       1  UNL1        0.0685
@<TRIPOS>UNITY_ATOM_ATTR
33 1
charge 1
35 1
charge -1
@<TRIPOS>BOND
     1     1     2    2
     2     2     3    1
     3     3     4    1
     4     4     5    1
     5     5     6   ar
     6     6     7   ar
     7     7     8   ar
     8     8     9    1
     9     9    10    1
    10    10    11    1
    11    11    12   ar
    12    12    13   ar
    13    13    14   ar
    14    14    15   ar
    15    15    16   ar
    16    16    17   ar
    17    17    18   ar
    18    18    19   ar
    19    19    20   ar
    20    11    20   ar
    21    15    20   ar
    22     8    21   ar
    23     5    21   ar
    24     2    22   am
    25    22    23    1
    26    23    24    2
    27    24    25    1
    28    25    26    2
    29    26    27    1
    30    27    28   ar
    31    28    29   ar
    32    29    30   ar
    33    30    31   ar
    34    31    32   ar
    35    27    32   ar
    36    32    33    1
    37    33    34    2
    38    33    35    1
    39     3    36    1
    40     3    37    1
    41    10    38    1
    42    10    39    1
    43    12    40    1
    44    13    41    1
    45    14    42    1
    46    16    43    1
    47    17    44    1
    48    18    45    1
    49    19    46    1
    50    22    47    1
    51    24    48    1
    52    25    49    1
    53    26    50    1
    54    28    51    1
    55    29    52    1
    56    30    53    1
    57    31    54    1
