REMARK  9 active torsions:
REMARK  status: ('A' for Active; 'I' for Inactive)
REMARK    1  A    between atoms: C_2  and  C_3 
REMARK       I    between atoms: C_2  and  N_20 
REMARK    2  A    between atoms: C_3  and  N_4 
REMARK    3  A    between atoms: N_4  and  C_5 
REMARK    4  A    between atoms: C_8  and  C_9 
REMARK       I    between atoms: C_9  and  N_11 
REMARK    5  A    between atoms: N_11  and  C_12 
REMARK    6  A    between atoms: C_12  and  C_13 
REMARK    7  A    between atoms: N_20  and  C_21 
REMARK    8  A    between atoms: C_25  and  C_26 
REMARK       I    between atoms: C_26  and  N_28 
REMARK    9  A    between atoms: N_28  and  C_29 
ROOT
ATOM      1  O   UNL d   1       1.116  -0.067   0.140  0.00  0.00    -0.271 OA
ATOM      2  C   UNL d   1       2.344  -0.004   0.047  0.00  0.00     0.239 C 
ATOM      3  N   UNL d   1       3.129  -0.881   0.780  0.00  0.00    -0.326 N 
ATOM      4  H   UNL d   1       2.607  -1.607   1.259  0.00  0.00     0.169 HD
ENDROOT
BRANCH   2   5
ATOM      5  C   UNL d   1       3.049   0.939  -0.943  0.00  0.00     0.223 C 
BRANCH   5   6
ATOM      6  N   UNL d   1       2.149   1.796  -1.700  0.00  0.00    -0.381 N 
ATOM      7  H   UNL d   1       1.150   1.708  -1.542  0.00  0.00     0.160 HD
BRANCH   6   8
ATOM      8  C   UNL d   1       2.666   2.644  -2.662  0.00  0.00     0.028 A 
ATOM      9  C   UNL d   1       2.219   3.961  -2.793  0.00  0.00     0.030 A 
ATOM     10  C   UNL d   1       2.772   4.817  -3.767  0.00  0.00     0.019 A 
ATOM     11  C   UNL d   1       3.836   4.393  -4.583  0.00  0.00     0.032 A 
ATOM     12  C   UNL d   1       4.278   3.079  -4.452  0.00  0.00     0.019 A 
ATOM     13  C   UNL d   1       3.707   2.232  -3.499  0.00  0.00     0.030 A 
BRANCH  11  14
ATOM     14  C   UNL d   1       4.499   5.362  -5.515  0.00  0.00     0.251 C 
ATOM     15  O   UNL d   1       4.085   6.521  -5.582  0.00  0.00    -0.268 OA
ATOM     16  N   UNL d   1       5.590   4.930  -6.251  0.00  0.00    -0.351 N 
ATOM     17  H   UNL d   1       5.947   3.989  -6.205  0.00  0.00     0.163 HD
BRANCH  16  18
ATOM     18  C   UNL d   1       6.279   5.836  -7.139  0.00  0.00     0.187 C 
BRANCH  18  19
ATOM     19  C   UNL d   1       7.435   5.208  -7.844  0.00  0.00     0.070 A 
ATOM     20  C   UNL d   1       8.524   5.783  -8.471  0.00  0.00     0.036 A 
ATOM     21  C   UNL d   1       9.278   4.729  -9.035  0.00  0.00     0.027 A 
ATOM     22  C   UNL d   1       8.610   3.571  -8.713  0.00  0.00     0.142 A 
ATOM     23  O   UNL d   1       7.489   3.847  -7.986  0.00  0.00    -0.325 OA
ENDBRANCH  18  19
ENDBRANCH  16  18
ENDBRANCH  11  14
ENDBRANCH   6   8
ENDBRANCH   5   6
ENDBRANCH   2   5
BRANCH   3  24
ATOM     24  C   UNL d   1       4.530  -0.888   0.900  0.00  0.00     0.035 A 
ATOM     25  C   UNL d   1       5.230  -2.088   1.003  0.00  0.00     0.029 A 
ATOM     26  C   UNL d   1       6.621  -2.064   1.162  0.00  0.00     0.003 A 
ATOM     27  C   UNL d   1       7.313  -0.845   1.161  0.00  0.00     0.017 A 
ATOM     28  C   UNL d   1       6.613   0.363   1.082  0.00  0.00     0.034 A 
ATOM     29  C   UNL d   1       5.226   0.314   1.006  0.00  0.00     0.046 A 
BRANCH  28  30
ATOM     30  C   UNL d   1       7.336   1.667   1.130  0.00  0.00     0.252 C 
ATOM     31  O   UNL d   1       8.564   1.649   1.235  0.00  0.00    -0.268 OA
ATOM     32  N   UNL d   1       6.605   2.852   1.065  0.00  0.00    -0.352 N 
ATOM     33  H   UNL d   1       5.598   2.867   1.015  0.00  0.00     0.163 HD
BRANCH  32  34
ATOM     34  C   UNL d   1       7.271   4.138   1.226  0.00  0.00     0.084 C 
ATOM     35  C   UNL d   1       6.373   5.345   0.885  0.00  0.00     0.025 C 
ATOM     36  C   UNL d   1       7.137   6.662   1.080  0.00  0.00     0.002 C 
ATOM     37  C   UNL d   1       7.714   6.782   2.490  0.00  0.00     0.000 C 
ATOM     38  C   UNL d   1       8.580   5.576   2.829  0.00  0.00     0.002 C 
ATOM     39  C   UNL d   1       7.805   4.280   2.658  0.00  0.00     0.025 C 
ENDBRANCH  32  34
ENDBRANCH  28  30
ENDBRANCH   3  24
TORSDOF 9
