@<TRIPOS>MOLECULE
*****
 62 65 0 0 0
SMALL
GASTEIGER

@<TRIPOS>ATOM
      1 C           1.0844    0.1040   -0.0973 C.3     1  UNL1        0.0788
      2 O           2.5031    0.2044   -0.2109 O.3     1  UNL1       -0.4951
      3 C           3.1392    0.9150    0.7677 C.ar    1  UNL1        0.1201
      4 C           4.3617    1.5019    0.4314 C.ar    1  UNL1       -0.0197
      5 C           5.1512    2.1370    1.4078 C.ar    1  UNL1       -0.0543
      6 C           4.6970    2.2567    2.7310 C.ar    1  UNL1       -0.0368
      7 C           5.5098    3.0442    3.7547 C.3     1  UNL1        0.0288
      8 S           4.7726    2.9621    5.4378 S.3     1  UNL1       -0.0518
      9 C           5.6706    4.0485    6.4600 C.ar    1  UNL1        0.2505
     10 N           6.1174    3.5676    7.6169 N.ar    1  UNL1       -0.2049
     11 C           6.2904    4.2606    8.7420 C.ar    1  UNL1        0.1724
     12 C           6.1843    5.6417    8.7537 C.ar    1  UNL1        0.0262
     13 C           5.8689    6.2322    7.5277 C.ar    1  UNL1        0.0620
     14 C           5.5817    5.4378    6.3982 C.ar    1  UNL1        0.0782
     15 C           5.1806    6.3111    5.3697 C.ar    1  UNL1       -0.0296
     16 C           5.3145    7.5799    5.8410 C.ar    1  UNL1        0.0065
     17 N           5.7094    7.5626    7.1488 N.ar    1  UNL1       -0.3375
     18 C           5.9348    8.7442    8.0012 C.3     1  UNL1        0.0995
     19 C           5.7367   10.0894    7.3081 C.2     1  UNL1        0.2331
     20 O           5.3798   10.2507    6.1356 O.2     1  UNL1       -0.2738
     21 N           5.9682   11.2128    8.0426 N.am    1  UNL1       -0.3097
     22 C           5.7585   12.4767    7.3692 C.3     1  UNL1        0.0370
     23 C           5.9327   13.6690    8.2483 C.ar    1  UNL1       -0.0266
     24 C           5.6766   13.6155    9.6180 C.ar    1  UNL1       -0.0534
     25 C           5.6422   14.7833   10.3645 C.ar    1  UNL1       -0.0160
     26 C           5.9246   16.0186    9.7732 C.ar    1  UNL1        0.1615
     27 O           5.9054   17.0522   10.6749 O.3     1  UNL1       -0.4915
     28 C           6.3198   18.3276   10.2046 C.3     1  UNL1        0.0790
     29 C           6.1835   16.0850    8.3919 C.ar    1  UNL1        0.1618
     30 O           6.3724   17.3140    7.8289 O.3     1  UNL1       -0.4914
     31 C           6.5817   17.4075    6.4318 C.3     1  UNL1        0.0790
     32 C           6.1946   14.9056    7.6451 C.ar    1  UNL1       -0.0116
     33 C           3.4592    1.6647    3.0351 C.ar    1  UNL1       -0.0543
     34 C           2.6954    1.0030    2.0766 C.ar    1  UNL1       -0.0197
     35 H           0.7383   -0.6409   -0.8196 H       1  UNL1        0.0660
     36 H           0.6329    1.0681   -0.3473 H       1  UNL1        0.0660
     37 H           0.7353   -0.2388    0.8815 H       1  UNL1        0.0660
     38 H           4.7014    1.4707   -0.6025 H       1  UNL1        0.0654
     39 H           6.1238    2.5272    1.1124 H       1  UNL1        0.0622
     40 H           5.5815    4.0811    3.4100 H       1  UNL1        0.0430
     41 H           6.5171    2.6234    3.8254 H       1  UNL1        0.0430
     42 H           6.2498    2.5577    7.6295 H       1  UNL1        0.4534
     43 H           6.4711    3.6729    9.6361 H       1  UNL1        0.1376
     44 H           6.3291    6.2099    9.6673 H       1  UNL1        0.0698
     45 H           4.8665    6.0897    4.3591 H       1  UNL1        0.0641
     46 H           5.1310    8.4750    5.2727 H       1  UNL1        0.0809
     47 H           6.9645    8.6766    8.3751 H       1  UNL1        0.0588
     48 H           5.2446    8.6645    8.8513 H       1  UNL1        0.0588
     49 H           6.3186   11.1805    8.9887 H       1  UNL1        0.1491
     50 H           4.7315   12.4936    6.9740 H       1  UNL1        0.0512
     51 H           6.4362   12.5187    6.5047 H       1  UNL1        0.0512
     52 H           5.4677   12.6784   10.1220 H       1  UNL1        0.0622
     53 H           5.3670   14.7280   11.4146 H       1  UNL1        0.0655
     54 H           6.3573   19.0137   11.0531 H       1  UNL1        0.0660
     55 H           5.5847   18.7296    9.4999 H       1  UNL1        0.0660
     56 H           7.3290   18.2893    9.7773 H       1  UNL1        0.0660
     57 H           6.6833   18.4685    6.1881 H       1  UNL1        0.0660
     58 H           5.7231   17.0163    5.8772 H       1  UNL1        0.0660
     59 H           7.5106   16.9044    6.1488 H       1  UNL1        0.0660
     60 H           6.3763   14.9263    6.5736 H       1  UNL1        0.0658
     61 H           3.0377    1.6757    4.0349 H       1  UNL1        0.0622
     62 H           1.7689    0.5519    2.4097 H       1  UNL1        0.0654
@<TRIPOS>UNITY_ATOM_ATTR
10 1
charge 1
@<TRIPOS>BOND
     1     1     2    1
     2     2     3    1
     3     3     4   ar
     4     4     5   ar
     5     5     6   ar
     6     6     7    1
     7     7     8    1
     8     8     9    1
     9     9    10   ar
    10    10    11   ar
    11    11    12   ar
    12    12    13   ar
    13    13    14   ar
    14     9    14   ar
    15    14    15   ar
    16    15    16   ar
    17    16    17   ar
    18    13    17   ar
    19    17    18    1
    20    18    19    1
    21    19    20    2
    22    19    21   am
    23    21    22    1
    24    22    23    1
    25    23    24   ar
    26    24    25   ar
    27    25    26   ar
    28    26    27    1
    29    27    28    1
    30    26    29   ar
    31    29    30    1
    32    30    31    1
    33    29    32   ar
    34    23    32   ar
    35     6    33   ar
    36    33    34   ar
    37     3    34   ar
    38     1    35    1
    39     1    36    1
    40     1    37    1
    41     4    38    1
    42     5    39    1
    43     7    40    1
    44     7    41    1
    45    10    42    1
    46    11    43    1
    47    12    44    1
    48    15    45    1
    49    16    46    1
    50    18    47    1
    51    18    48    1
    52    21    49    1
    53    22    50    1
    54    22    51    1
    55    24    52    1
    56    25    53    1
    57    28    54    1
    58    28    55    1
    59    28    56    1
    60    31    57    1
    61    31    58    1
    62    31    59    1
    63    32    60    1
    64    33    61    1
    65    34    62    1
