@<TRIPOS>MOLECULE
*****
 35 36 0 0 0
SMALL
GASTEIGER

@<TRIPOS>ATOM
      1 C           0.9621   -0.0395    0.0792 C.3     1  UNL1       -0.0014
      2 C           2.4686    0.0224    0.0764 C.2     1  UNL1        0.1602
      3 O           3.0983    0.5759   -0.8282 O.2     1  UNL1       -0.2924
      4 C           3.2209   -0.6175    1.1837 C.ar    1  UNL1        0.0189
      5 C           4.4210   -0.0761    1.6299 C.ar    1  UNL1       -0.0512
      6 C           5.2119   -0.8172    2.5108 C.ar    1  UNL1       -0.0593
      7 C           4.7782   -2.0747    2.9863 C.ar    1  UNL1       -0.0404
      8 C           3.5511   -2.6135    2.5659 C.ar    1  UNL1        0.0355
      9 N           3.1129   -3.9083    3.0009 N.am    1  UNL1       -0.2683
     10 C           1.9481   -4.5386    2.5682 C.2     1  UNL1        0.3201
     11 O           1.1377   -4.0828    1.7533 O.2     1  UNL1       -0.2509
     12 N           1.6750   -5.7746    3.1517 N.am    1  UNL1       -0.2200
     13 N           0.7312   -6.5464    2.3977 N.pl3   1  UNL1       -0.2633
     14 C           0.1642   -7.6941    2.9924 C.ar    1  UNL1        0.0445
     15 C          -0.5311   -8.5931    2.1614 C.ar    1  UNL1       -0.0394
     16 C          -1.1206   -9.7554    2.6729 C.ar    1  UNL1       -0.0600
     17 C          -0.9835  -10.0630    4.0217 C.ar    1  UNL1       -0.0616
     18 C          -0.3002   -9.1841    4.8598 C.ar    1  UNL1       -0.0600
     19 C           0.2594   -8.0037    4.3506 C.ar    1  UNL1       -0.0394
     20 C           2.7912   -1.8506    1.6747 C.ar    1  UNL1       -0.0300
     21 H           0.5834    0.4526   -0.8219 H       1  UNL1        0.0309
     22 H           0.5742    0.4907    0.9525 H       1  UNL1        0.0309
     23 H           0.5942   -1.0680    0.0612 H       1  UNL1        0.0309
     24 H           4.7433    0.9011    1.2744 H       1  UNL1        0.0625
     25 H           6.1864   -0.4225    2.7967 H       1  UNL1        0.0618
     26 H           5.4319   -2.6054    3.6747 H       1  UNL1        0.0636
     27 H           3.7421   -4.4247    3.6005 H       1  UNL1        0.1564
     28 H           2.4201   -6.3313    3.5496 H       1  UNL1        0.1743
     29 H           0.0153   -5.9381    1.9715 H       1  UNL1        0.1700
     30 H          -0.5902   -8.4089    1.0901 H       1  UNL1        0.0636
     31 H          -1.6791  -10.4206    2.0183 H       1  UNL1        0.0618
     32 H          -1.4073  -10.9826    4.4184 H       1  UNL1        0.0618
     33 H          -0.2097   -9.4126    5.9184 H       1  UNL1        0.0618
     34 H           0.7550   -7.3267    5.0376 H       1  UNL1        0.0636
     35 H           1.8580   -2.2233    1.2897 H       1  UNL1        0.0643
@<TRIPOS>BOND
     1     1     2    1
     2     2     3    2
     3     2     4    1
     4     4     5   ar
     5     5     6   ar
     6     6     7   ar
     7     7     8   ar
     8     8     9    1
     9     9    10   am
    10    10    11    2
    11    10    12   am
    12    12    13    1
    13    13    14    1
    14    14    15   ar
    15    15    16   ar
    16    16    17   ar
    17    17    18   ar
    18    18    19   ar
    19    14    19   ar
    20     8    20   ar
    21     4    20   ar
    22     1    21    1
    23     1    22    1
    24     1    23    1
    25     5    24    1
    26     6    25    1
    27     7    26    1
    28     9    27    1
    29    12    28    1
    30    13    29    1
    31    15    30    1
    32    16    31    1
    33    17    32    1
    34    18    33    1
    35    19    34    1
    36    20    35    1
