REMARK  4 active torsions:
REMARK  status: ('A' for Active; 'I' for Inactive)
REMARK    1  A    between atoms: N_1  and  C_2 
REMARK    2  A    between atoms: C_6  and  N_7 
REMARK       I    between atoms: N_7  and  C_8 
REMARK    3  A    between atoms: C_8  and  C_10 
REMARK    4  A    between atoms: C_11  and  C_12 
ROOT
ATOM      1  N   UNL d   1       0.145   3.817  -0.018  0.00  0.00    -0.324 N 
ATOM      2  C   UNL d   1       1.331   4.546  -0.043  0.00  0.00     0.245 C 
ATOM      3  O   UNL d   1       2.468   4.070  -0.045  0.00  0.00    -0.268 OA
ATOM      4  H   UNL d   1      -0.737   4.317  -0.009  0.00  0.00     0.169 HD
ENDROOT
BRANCH   1   5
ATOM      5  C   UNL d   1       0.078   2.385  -0.011  0.00  0.00     0.038 A 
ATOM      6  C   UNL d   1       1.233   1.598  -0.022  0.00  0.00     0.056 A 
ATOM      7  C   UNL d   1       1.191   0.204  -0.016  0.00  0.00     0.064 A 
ATOM      8  C   UNL d   1      -0.022  -0.485  -0.031  0.00  0.00     0.070 A 
ATOM      9 CL   UNL d   1       2.704  -0.643  -0.002  0.00  0.00    -0.082 Cl
ATOM     10  C   UNL d   1      -1.192   0.296   0.001  0.00  0.00     0.064 A 
ATOM     11  C   UNL d   1      -1.152   1.712   0.007  0.00  0.00     0.056 A 
ATOM     12 CL   UNL d   1      -2.741  -0.488   0.016  0.00  0.00    -0.082 Cl
BRANCH   8  13
ATOM     13  N   UNL d   1      -0.042  -1.878   0.050  0.00  0.00    -0.396 N 
ATOM     14  H   UNL d   1       0.833  -2.378  -0.080  0.00  0.00     0.156 HD
ATOM     15  H   UNL d   1      -0.913  -2.377  -0.082  0.00  0.00     0.156 HD
ENDBRANCH   8  13
ENDBRANCH   1   5
BRANCH   2  16
ATOM     16  C   UNL d   1       1.205   6.027  -0.051  0.00  0.00     0.076 C 
ATOM     17  C   UNL d   1       2.339   6.762  -0.082  0.00  0.00     0.037 C 
BRANCH  17  18
ATOM     18  C   UNL d   1       2.370   8.226  -0.051  0.00  0.00     0.056 A 
ATOM     19  C   UNL d   1       1.561   8.931   0.831  0.00  0.00     0.031 A 
ATOM     20  C   UNL d   1       1.582  10.321   0.803  0.00  0.00     0.004 A 
ATOM     21  C   UNL d   1       2.433  10.970  -0.081  0.00  0.00     0.019 A 
ATOM     22  C   UNL d   1       3.245  10.192  -0.890  0.00  0.00     0.117 A 
ATOM     23  N   UNL d   1       3.237   8.837  -0.891  0.00  0.00    -0.261 NA
ENDBRANCH  17  18
ENDBRANCH   2  16
TORSDOF 4
