@<TRIPOS>MOLECULE
*****
 40 41 0 0 0
SMALL
GASTEIGER

@<TRIPOS>ATOM
      1 N           1.1679   -0.0006   -0.0367 N.am    1  UNL1       -0.3122
      2 C           2.5263    0.0067    0.0229 C.2     1  UNL1        0.3134
      3 O           3.1029    0.1326    1.1051 O.2     1  UNL1       -0.2515
      4 N           3.1713   -0.1307   -1.1814 N.am    1  UNL1       -0.2172
      5 N           4.6017   -0.1364   -1.2425 N.am    1  UNL1       -0.2170
      6 C           5.2345   -0.2915   -2.4655 C.2     1  UNL1        0.3162
      7 O           4.6079   -0.4078   -3.5183 O.2     1  UNL1       -0.2513
      8 N           6.6155   -0.3138   -2.4155 N.am    1  UNL1       -0.2941
      9 C           7.4091   -0.4978   -3.6300 C.3     1  UNL1        0.0385
     10 C           8.9019   -0.5092   -3.3970 C.ar    1  UNL1       -0.0238
     11 C           9.6801   -1.6521   -3.2765 C.ar    1  UNL1       -0.0387
     12 C          11.0514   -1.5064   -3.0702 C.ar    1  UNL1        0.0317
     13 N          11.6903   -0.3150   -2.9817 N.ar    1  UNL1       -0.2213
     14 C          10.9355    0.7906   -3.1180 C.ar    1  UNL1        0.2152
     15 O          11.6316    1.9648   -3.0322 O.3     1  UNL1       -0.4731
     16 C          10.9390    3.2116   -3.0276 C.3     1  UNL1        0.1018
     17 C          10.2138    3.5856   -4.3255 C.3     1  UNL1       -0.0157
     18 C           9.2394    4.6738   -3.8970 C.3     1  UNL1       -0.0496
     19 C           8.9578    4.4665   -2.4056 C.3     1  UNL1       -0.0496
     20 C           9.9110    3.3901   -1.9043 C.3     1  UNL1       -0.0157
     21 C           9.5648    0.7082   -3.3262 C.ar    1  UNL1        0.0047
     22 H           0.6610    0.1002    0.8358 H       1  UNL1        0.1465
     23 H           0.6234   -0.1000   -0.8799 H       1  UNL1        0.1465
     24 H           2.6790   -0.2384   -2.0631 H       1  UNL1        0.1744
     25 H           5.0818   -0.0433   -0.3524 H       1  UNL1        0.1744
     26 H           7.0974   -0.1869   -1.5379 H       1  UNL1        0.1506
     27 H           7.1633    0.3238   -4.3205 H       1  UNL1        0.0512
     28 H           7.1024   -1.4190   -4.1326 H       1  UNL1        0.0512
     29 H           9.2435   -2.6398   -3.3564 H       1  UNL1        0.0636
     30 H          11.6951   -2.3775   -2.9706 H       1  UNL1        0.0831
     31 H          11.7134    3.9773   -2.8756 H       1  UNL1        0.0733
     32 H           9.6668    2.7657   -4.7949 H       1  UNL1        0.0301
     33 H          10.9057    3.9180   -5.1058 H       1  UNL1        0.0301
     34 H           8.3155    4.6319   -4.4846 H       1  UNL1        0.0266
     35 H           9.6862    5.6600   -4.0574 H       1  UNL1        0.0266
     36 H           7.9185    4.1544   -2.2470 H       1  UNL1        0.0266
     37 H           9.1045    5.3984   -1.8513 H       1  UNL1        0.0266
     38 H           9.3374    2.4903   -1.6727 H       1  UNL1        0.0301
     39 H          10.3854    3.6424   -0.9513 H       1  UNL1        0.0301
     40 H           8.9459    1.5820   -3.4401 H       1  UNL1        0.0674
@<TRIPOS>BOND
     1     1     2   am
     2     2     3    2
     3     2     4   am
     4     4     5    1
     5     5     6   am
     6     6     7    2
     7     6     8   am
     8     8     9    1
     9     9    10    1
    10    10    11   ar
    11    11    12   ar
    12    12    13   ar
    13    13    14   ar
    14    14    15    1
    15    15    16    1
    16    16    17    1
    17    17    18    1
    18    18    19    1
    19    19    20    1
    20    16    20    1
    21    14    21   ar
    22    10    21   ar
    23     1    22    1
    24     1    23    1
    25     4    24    1
    26     5    25    1
    27     8    26    1
    28     9    27    1
    29     9    28    1
    30    11    29    1
    31    12    30    1
    32    16    31    1
    33    17    32    1
    34    17    33    1
    35    18    34    1
    36    18    35    1
    37    19    36    1
    38    19    37    1
    39    20    38    1
    40    20    39    1
    41    21    40    1
