REMARK  4 active torsions:
REMARK  status: ('A' for Active; 'I' for Inactive)
REMARK    1  A    between atoms: C_2  and  N_3 
REMARK    2  A    between atoms: C_2  and  C_12 
REMARK       I    between atoms: N_3  and  C_4 
REMARK    3  A    between atoms: C_4  and  C_6 
REMARK       I    between atoms: C_12  and  N_14 
REMARK    4  A    between atoms: N_14  and  C_15 
ROOT
ATOM      1  C   UNL d   1       2.870   0.283  -1.569  0.00  0.00     0.244 C 
ATOM      2  O   UNL d   1       2.002   0.304  -2.454  0.00  0.00    -0.271 OA
ATOM      3  N   UNL d   1       4.200   0.422  -1.869  0.00  0.00    -0.323 N 
ATOM      4  H   UNL d   1       4.875   0.065  -1.198  0.00  0.00     0.169 HD
ENDROOT
BRANCH   1   5
ATOM      5  C   UNL d   1       2.481   0.027  -0.082  0.00  0.00     0.173 C 
ATOM      6  C   UNL d   1       0.943   0.064  -0.053  0.00  0.00     0.042 C 
BRANCH   5   7
ATOM      7  N   UNL d   1       3.005  -1.232   0.492  0.00  0.00    -0.344 N 
ATOM      8  C   UNL d   1       2.628  -1.639   1.768  0.00  0.00     0.252 C 
ATOM      9  O   UNL d   1       1.934  -0.966   2.521  0.00  0.00    -0.268 OA
ATOM     10  H   UNL d   1       3.453  -1.900  -0.121  0.00  0.00     0.163 HD
BRANCH   8  11
ATOM     11  C   UNL d   1       3.105  -2.956   2.267  0.00  0.00     0.032 A 
ATOM     12  C   UNL d   1       2.265  -3.712   3.102  0.00  0.00     0.017 A 
ATOM     13  C   UNL d   1       2.771  -4.810   3.803  0.00  0.00     0.001 A 
ATOM     14  C   UNL d   1       4.100  -5.191   3.628  0.00  0.00     0.000 A 
ATOM     15  C   UNL d   1       4.927  -4.465   2.769  0.00  0.00     0.001 A 
ATOM     16  C   UNL d   1       4.435  -3.345   2.091  0.00  0.00     0.017 A 
ENDBRANCH   8  11
ENDBRANCH   5   7
ENDBRANCH   1   5
BRANCH   3  17
ATOM     17  C   UNL d   1       4.650   0.674  -3.210  0.00  0.00     0.064 C 
ATOM     18  C   UNL d   1       5.819  -0.065  -3.551  0.00  0.00     0.032 C 
ATOM     19  C   UNL d   1       6.428   0.115  -4.780  0.00  0.00     0.003 C 
ATOM     20  C   UNL d   1       5.926   1.089  -5.620  0.00  0.00     0.013 C 
ATOM     21  C   UNL d   1       4.841   1.896  -5.245  0.00  0.00    -0.008 C 
ATOM     22  C   UNL d   1       4.601   3.035  -6.012  0.00  0.00    -0.002 C 
ATOM     23  C   UNL d   1       4.023   1.650  -4.138  0.00  0.00     0.092 C 
ATOM     24  C   UNL d   1       3.704   3.991  -5.586  0.00  0.00     0.062 C 
ATOM     25  C   UNL d   1       2.612   3.382  -5.077  0.00  0.00     0.100 C 
ATOM     26  N   UNL d   1       2.803   2.383  -4.168  0.00  0.00    -0.261 NA
ENDBRANCH   3  17
TORSDOF 4
