REMARK  8 active torsions:
REMARK  status: ('A' for Active; 'I' for Inactive)
REMARK    1  A    between atoms: C_2  and  O_3 
REMARK    2  A    between atoms: O_3  and  C_4 
REMARK    3  A    between atoms: C_6  and  C_7 
REMARK    4  A    between atoms: N_8  and  N_9 
REMARK       I    between atoms: N_9  and  C_10 
REMARK    5  A    between atoms: C_10  and  C_12 
REMARK    6  A    between atoms: C_16  and  S_17 
REMARK    7  A    between atoms: S_17  and  N_20 
REMARK    8  A    between atoms: C_28  and  O_29 
ROOT
ATOM      1  N   UNL d   1       5.426  -3.167  -7.362  0.00  0.00    -0.243 N 
ATOM      2  C   UNL d   1       6.101  -2.896  -8.569  0.00  0.00     0.271 C 
ATOM      3  O   UNL d   1       6.372  -1.757  -8.949  0.00  0.00    -0.266 OA
ATOM      4  H   UNL d   1       5.269  -4.111  -7.040  0.00  0.00     0.192 HD
ENDROOT
BRANCH   2   5
ATOM      5  C   UNL d   1       6.499  -4.044  -9.489  0.00  0.00     0.035 C 
ATOM      6  C   UNL d   1       7.632  -3.973 -10.280  0.00  0.00     0.017 C 
ATOM      7  C   UNL d   1       7.855  -4.935 -11.291  0.00  0.00     0.003 C 
ATOM      8  C   UNL d   1       6.910  -5.933 -11.593  0.00  0.00     0.025 C 
ATOM      9  C   UNL d   1       5.762  -6.001 -10.828  0.00  0.00     0.080 C 
ATOM     10  C   UNL d   1       5.692  -5.153  -9.718  0.00  0.00     0.042 C 
BRANCH   9  11
ATOM     11  S   UNL d   1       4.416  -7.120 -11.299  0.00  0.00     0.260 S 
ATOM     12  O   UNL d   1       4.115  -6.851 -12.700  0.00  0.00    -0.200 OA
ATOM     13  O   UNL d   1       4.824  -8.430 -10.866  0.00  0.00    -0.200 OA
BRANCH  11  14
ATOM     14  N   UNL d   1       3.006  -6.689 -10.411  0.00  0.00    -0.307 N 
ATOM     15  C   UNL d   1       2.295  -5.421 -10.730  0.00  0.00     0.135 C 
ATOM     16  C   UNL d   1       2.816  -4.460  -9.688  0.00  0.00     0.022 C 
ATOM     17  C   UNL d   1       2.884  -5.360  -8.432  0.00  0.00     0.022 C 
ATOM     18  C   UNL d   1       3.069  -6.807  -8.939  0.00  0.00     0.135 C 
ENDBRANCH  11  14
ENDBRANCH   9  11
ENDBRANCH   2   5
BRANCH   1  19
ATOM     19  N   UNL d   1       5.146  -2.123  -6.487  0.00  0.00    -0.183 NA
ATOM     20  C   UNL d   1       4.610  -2.384  -5.327  0.00  0.00     0.150 C 
BRANCH  20  21
ATOM     21  C   UNL d   1       4.337  -1.299  -4.319  0.00  0.00    -0.014 A 
ATOM     22  C   UNL d   1       3.755  -1.563  -3.063  0.00  0.00     0.052 A 
ATOM     23  C   UNL d   1       3.509  -0.521  -2.127  0.00  0.00     0.102 A 
ATOM     24  C   UNL d   1       3.891   0.783  -2.464  0.00  0.00     0.099 A 
ATOM     25  C   UNL d   1       4.462   1.049  -3.708  0.00  0.00     0.040 A 
ATOM     26  C   UNL d   1       4.681   0.018  -4.628  0.00  0.00     0.016 A 
BRANCH  23  27
ATOM     27  O   UNL d   1       2.923  -0.945  -0.960  0.00  0.00    -0.349 OA
BRANCH  27  28
ATOM     28  C   UNL d   1       2.417  -0.020   0.008  0.00  0.00     0.171 C 
ATOM     29  C   UNL d   1       0.901   0.005  -0.026  0.00  0.00     0.034 C 
ENDBRANCH  27  28
ENDBRANCH  23  27
BRANCH  24  30
ATOM     30  O   UNL d   1       3.754   1.831  -1.600  0.00  0.00    -0.358 OA
ATOM     31  H   UNL d   1       4.033   2.667  -2.002  0.00  0.00     0.217 HD
ENDBRANCH  24  30
ENDBRANCH  20  21
ENDBRANCH   1  19
TORSDOF 8
