@<TRIPOS>MOLECULE
*****
 58 62 0 0 0
SMALL
GASTEIGER

@<TRIPOS>ATOM
      1 C           1.0390    0.0781    0.0811 C.3     1  UNL1       -0.0397
      2 C           2.5390    0.0144    0.0816 C.ar    1  UNL1       -0.0495
      3 C           3.3206    1.2542    0.0804 C.ar    1  UNL1       -0.0526
      4 C           4.6665    1.2915    0.0804 C.ar    1  UNL1        0.0101
      5 C           5.3923   -0.0015    0.0812 C.ar    1  UNL1        0.2086
      6 C           4.5737   -1.2317    0.0824 C.ar    1  UNL1        0.0512
      7 C           3.1543   -1.1837    0.0828 C.ar    1  UNL1       -0.0452
      8 C           5.4571   -2.2400    0.0829 C.2     1  UNL1        0.0091
      9 C           5.1100   -3.7030    0.0892 C.3     1  UNL1       -0.0092
     10 C           6.3155   -4.6413    0.1082 C.3     1  UNL1        0.0155
     11 N           5.9776   -6.0671    0.1763 N.am    1  UNL1       -0.3148
     12 C           7.0156   -6.9706    0.1962 C.2     1  UNL1        0.2162
     13 O           8.1714   -6.5214    0.1906 O.2     1  UNL1       -0.2755
     14 C           6.8265   -8.5043    0.0374 C.3     1  UNL1        0.0379
     15 C           6.2696   -9.5621    0.9959 C.3     1  UNL1       -0.0290
     16 C           6.8438  -11.0109    0.4944 C.3     1  UNL1        0.0020
     17 N           6.7200  -11.3475   -0.9545 N.3     1  UNL1       -0.2757
     18 C           6.9745  -12.7407   -1.5591 C.3     1  UNL1        0.1289
     19 N           8.0861  -13.4907   -2.3916 N.pl3   1  UNL1       -0.3178
     20 C           7.4609  -14.6723   -2.9968 C.ar    1  UNL1        0.0612
     21 C           8.0371  -15.8770   -3.4419 C.ar    1  UNL1       -0.0368
     22 C           7.2282  -17.0435   -3.4122 C.ar    1  UNL1       -0.0418
     23 C           5.8580  -16.9140   -3.2231 C.ar    1  UNL1        0.0290
     24 N           5.2474  -15.7269   -3.1013 N.ar    1  UNL1       -0.2468
     25 C           6.0682  -14.6708   -2.9648 C.ar    1  UNL1        0.1206
     26 S           5.4192  -13.1142   -2.4909 S.3     1  UNL1       -0.0657
     27 C           6.8818  -10.2095   -1.8345 C.3     1  UNL1        0.0020
     28 C           6.3006   -8.8598   -1.3461 C.3     1  UNL1       -0.0290
     29 C           6.8651   -1.7101    0.0796 C.3     1  UNL1        0.1661
     30 N           6.6254   -0.2494    0.0805 N.2     1  UNL1       -0.2369
     31 H           0.6594    1.1035    0.0807 H       1  UNL1        0.0278
     32 H           0.6398   -0.4264    0.9687 H       1  UNL1        0.0278
     33 H           0.6404   -0.4268   -0.8066 H       1  UNL1        0.0278
     34 H           2.7564    2.1878    0.0789 H       1  UNL1        0.0622
     35 H           5.2065    2.2320    0.0790 H       1  UNL1        0.0683
     36 H           2.5886   -2.1098    0.0828 H       1  UNL1        0.0628
     37 H           4.5028   -3.9221   -0.7978 H       1  UNL1        0.0327
     38 H           4.4910   -3.9118    0.9693 H       1  UNL1        0.0327
     39 H           6.9516   -4.4067    0.9724 H       1  UNL1        0.0465
     40 H           6.9304   -4.4642   -0.7877 H       1  UNL1        0.0465
     41 H           5.0172   -6.3696    0.0785 H       1  UNL1        0.1487
     42 H           7.8904   -8.7682    0.0853 H       1  UNL1        0.0395
     43 H           5.1688   -9.5559    1.0534 H       1  UNL1        0.0285
     44 H           6.6161   -9.3620    2.0221 H       1  UNL1        0.0285
     45 H           6.3919  -11.7706    1.1457 H       1  UNL1        0.0428
     46 H           7.9146  -10.9818    0.7229 H       1  UNL1        0.0428
     47 H           6.9577  -13.3888   -0.6747 H       1  UNL1        0.0794
     48 H           8.6816  -12.9995   -3.0545 H       1  UNL1        0.1484
     49 H           9.0695  -16.0182   -3.7584 H       1  UNL1        0.0637
     50 H           7.6462  -18.0490   -3.4793 H       1  UNL1        0.0633
     51 H           5.1943  -17.7718   -3.1469 H       1  UNL1        0.0830
     52 H           6.4155  -10.4068   -2.8010 H       1  UNL1        0.0428
     53 H           7.9550  -10.0767   -1.9723 H       1  UNL1        0.0428
     54 H           5.1993   -8.8710   -1.3387 H       1  UNL1        0.0285
     55 H           6.5933   -8.0870   -2.0627 H       1  UNL1        0.0285
     56 H           7.4093   -1.9766   -0.8290 H       1  UNL1        0.1077
     57 H           7.4150   -1.9768    0.9845 H       1  UNL1        0.1077
     58 H           7.3598    0.4713    0.0800 H       1  UNL1        0.4459
@<TRIPOS>UNITY_ATOM_ATTR
30 1
charge 1
@<TRIPOS>BOND
     1     1     2    1
     2     2     3   ar
     3     3     4   ar
     4     4     5   ar
     5     5     6   ar
     6     6     7   ar
     7     2     7   ar
     8     6     8    2
     9     8     9    1
    10     9    10    1
    11    10    11    1
    12    11    12   am
    13    12    13    2
    14    12    14    1
    15    14    15    1
    16    15    16    1
    17    16    17    1
    18    17    18    1
    19    18    19    1
    20    19    20    1
    21    20    21   ar
    22    21    22   ar
    23    22    23   ar
    24    23    24   ar
    25    24    25   ar
    26    20    25   ar
    27    25    26    1
    28    18    26    1
    29    17    27    1
    30    27    28    1
    31    14    28    1
    32     8    29    1
    33    29    30    1
    34     5    30    2
    35     1    31    1
    36     1    32    1
    37     1    33    1
    38     3    34    1
    39     4    35    1
    40     7    36    1
    41     9    37    1
    42     9    38    1
    43    10    39    1
    44    10    40    1
    45    11    41    1
    46    14    42    1
    47    15    43    1
    48    15    44    1
    49    16    45    1
    50    16    46    1
    51    18    47    1
    52    19    48    1
    53    21    49    1
    54    22    50    1
    55    23    51    1
    56    27    52    1
    57    27    53    1
    58    28    54    1
    59    28    55    1
    60    29    56    1
    61    29    57    1
    62    30    58    1
