REMARK  10 active torsions:
REMARK  status: ('A' for Active; 'I' for Inactive)
REMARK    1  A    between atoms: C_2  and  C_3 
REMARK    2  A    between atoms: C_3  and  C_4 
REMARK       I    between atoms: C_4  and  N_6 
REMARK    3  A    between atoms: N_6  and  C_7 
REMARK    4  A    between atoms: C_10  and  C_11 
REMARK       I    between atoms: C_11  and  N_13 
REMARK    5  A    between atoms: N_13  and  N_14 
REMARK    6  A    between atoms: N_14  and  C_15 
REMARK    7  A    between atoms: C_15  and  N_17 
REMARK       I    between atoms: N_17  and  C_18 
REMARK    8  A    between atoms: C_18  and  C_20 
REMARK    9  A    between atoms: C_20  and  O_21 
REMARK   10  A    between atoms: O_21  and  C_22 
ROOT
ATOM      1  N   UNL d   1      13.275   2.177   0.334  0.00  0.00    -0.273 N 
ATOM      2  H   UNL d   1      13.776   2.318   1.210  0.00  0.00     0.189 HD
ENDROOT
BRANCH   1   3
ATOM      3  N   UNL d   1      11.822   2.216   0.448  0.00  0.00    -0.264 N 
ATOM      4  C   UNL d   1      11.147   2.442   1.639  0.00  0.00     0.270 C 
ATOM      5  O   UNL d   1      11.752   2.635   2.701  0.00  0.00    -0.266 OA
ATOM      6  H   UNL d   1      11.343   2.030  -0.432  0.00  0.00     0.190 HD
BRANCH   4   7
ATOM      7  C   UNL d   1       9.620   2.417   1.617  0.00  0.00     0.033 A 
ATOM      8  C   UNL d   1       8.891   2.588   2.814  0.00  0.00     0.019 A 
ATOM      9  C   UNL d   1       7.477   2.463   2.857  0.00  0.00     0.030 A 
ATOM     10  C   UNL d   1       6.759   2.193   1.690  0.00  0.00     0.034 A 
ATOM     11  C   UNL d   1       7.476   2.066   0.497  0.00  0.00     0.030 A 
ATOM     12  C   UNL d   1       8.878   2.184   0.454  0.00  0.00     0.019 A 
BRANCH  10  13
ATOM     13  N   UNL d   1       5.340   2.092   1.693  0.00  0.00    -0.327 N 
ATOM     14  C   UNL d   1       4.667   1.170   0.897  0.00  0.00     0.222 C 
ATOM     15  O   UNL d   1       5.239   0.325   0.209  0.00  0.00    -0.273 OA
ATOM     16  H   UNL d   1       4.824   2.606   2.397  0.00  0.00     0.169 HD
BRANCH  14  17
ATOM     17  C   UNL d   1       3.142   1.228   0.948  0.00  0.00     0.103 C 
BRANCH  17  18
ATOM     18  C   UNL d   1       2.554   0.117   0.061  0.00  0.00     0.005 C 
ATOM     19  C   UNL d   1       1.037   0.102   0.050  0.00  0.00     0.005 C 
ENDBRANCH  17  18
ENDBRANCH  14  17
ENDBRANCH  10  13
ENDBRANCH   4   7
ENDBRANCH   1   3
BRANCH   1  20
ATOM     20  C   UNL d   1      13.824   1.956  -0.945  0.00  0.00     0.193 C 
ATOM     21  S   UNL d   1      12.775   1.720  -2.252  0.00  0.00    -0.039 SA
BRANCH  20  22
ATOM     22  N   UNL d   1      15.235   1.965  -1.036  0.00  0.00    -0.301 N 
ATOM     23  C   UNL d   1      15.986   1.796  -2.232  0.00  0.00     0.248 C 
ATOM     24  O   UNL d   1      15.477   1.573  -3.330  0.00  0.00    -0.271 OA
ATOM     25  H   UNL d   1      15.755   2.087  -0.177  0.00  0.00     0.171 HD
BRANCH  23  26
ATOM     26  C   UNL d   1      17.525   1.813  -2.133  0.00  0.00     0.278 C 
BRANCH  26  27
ATOM     27  O   UNL d   1      18.107   1.652  -3.443  0.00  0.00    -0.342 OA
BRANCH  27  28
ATOM     28  C   UNL d   1      19.454   1.469  -3.628  0.00  0.00     0.075 A 
ATOM     29  C   UNL d   1      19.973   2.019  -4.817  0.00  0.00     0.039 A 
ATOM     30  C   UNL d   1      21.311   1.822  -5.195  0.00  0.00     0.022 A 
ATOM     31  C   UNL d   1      22.157   1.106  -4.360  0.00  0.00     0.011 A 
ATOM     32 BR   UNL d   1      23.998   0.951  -4.760  0.00  0.00    -0.051 Br
ATOM     33  C   UNL d   1      21.658   0.534  -3.195  0.00  0.00     0.028 A 
ATOM     34  C   UNL d   1      20.308   0.704  -2.822  0.00  0.00    -0.027 A 
ATOM     35  C   UNL d   1      19.864   0.037  -1.563  0.00  0.00     0.051 C 
ENDBRANCH  27  28
ENDBRANCH  26  27
ENDBRANCH  23  26
ENDBRANCH  20  22
ENDBRANCH   1  20
TORSDOF 10
