@<TRIPOS>MOLECULE
*****
 31 32 0 0 0
SMALL
GASTEIGER

@<TRIPOS>ATOM
      1 O           1.0356    0.1472    0.1353 O.2     1  UNL1       -0.2685
      2 C           2.2667    0.1358    0.1315 C.2     1  UNL1        0.2637
      3 N           3.0109    0.9076    1.0195 N.am    1  UNL1       -0.2300
      4 N           2.3255    1.7545    1.9328 N.am    1  UNL1       -0.2301
      5 C           3.0493    2.5889    2.7749 C.2     1  UNL1        0.2616
      6 O           4.2796    2.5916    2.8064 O.2     1  UNL1       -0.2686
      7 C           2.2571    3.4836    3.6785 C.ar    1  UNL1        0.0578
      8 C           1.1951    2.9352    4.4189 C.ar    1  UNL1       -0.0298
      9 C           0.4330    3.7449    5.2701 C.ar    1  UNL1        0.0418
     10 CL         -0.8615    3.0593    6.1735 Cl      1  UNL1       -0.0835
     11 C           0.7061    5.1041    5.3971 C.ar    1  UNL1       -0.0420
     12 C           1.7748    5.6532    4.6892 C.ar    1  UNL1       -0.0413
     13 C           2.5614    4.8474    3.8458 C.ar    1  UNL1        0.0532
     14 CL          3.8602    5.6353    3.0248 Cl      1  UNL1       -0.0828
     15 C           3.0291   -0.7640   -0.7943 C.ar    1  UNL1        0.0795
     16 C           4.0363   -1.5915   -0.2736 C.ar    1  UNL1       -0.0460
     17 C           4.6965   -2.5161   -1.0950 C.ar    1  UNL1       -0.0608
     18 C           4.3650   -2.6209   -2.4451 C.ar    1  UNL1       -0.0583
     19 C           3.3682   -1.8032   -2.9792 C.ar    1  UNL1       -0.0194
     20 C           2.6997   -0.8841   -2.1556 C.ar    1  UNL1        0.1290
     21 O           1.7383   -0.0807   -2.7041 O.3     1  UNL1       -0.5060
     22 H           4.0270    0.9742    1.0070 H       1  UNL1        0.1731
     23 H           1.3098    1.7649    1.8426 H       1  UNL1        0.1731
     24 H           0.9717    1.8732    4.3572 H       1  UNL1        0.0640
     25 H           0.0999    5.7368    6.0436 H       1  UNL1        0.0633
     26 H           1.9866    6.7167    4.7960 H       1  UNL1        0.0633
     27 H           4.2890   -1.5559    0.7825 H       1  UNL1        0.0626
     28 H           5.4605   -3.1687   -0.6769 H       1  UNL1        0.0618
     29 H           4.8799   -3.3432   -3.0772 H       1  UNL1        0.0619
     30 H           3.1279   -1.8996   -4.0357 H       1  UNL1        0.0654
     31 H           1.5710   -0.3429   -3.6240 H       1  UNL1        0.2922
@<TRIPOS>BOND
     1     1     2    2
     2     2     3   am
     3     3     4    1
     4     4     5   am
     5     5     6    2
     6     5     7    1
     7     7     8   ar
     8     8     9   ar
     9     9    10    1
    10     9    11   ar
    11    11    12   ar
    12    12    13   ar
    13     7    13   ar
    14    13    14    1
    15     2    15    1
    16    15    16   ar
    17    16    17   ar
    18    17    18   ar
    19    18    19   ar
    20    19    20   ar
    21    15    20   ar
    22    20    21    1
    23     3    22    1
    24     4    23    1
    25     8    24    1
    26    11    25    1
    27    12    26    1
    28    16    27    1
    29    17    28    1
    30    18    29    1
    31    19    30    1
    32    21    31    1
