REMARK  4 active torsions:
REMARK  status: ('A' for Active; 'I' for Inactive)
REMARK    1  A    between atoms: C_5  and  C_6 
REMARK       I    between atoms: C_6  and  N_8 
REMARK    2  A    between atoms: N_8  and  N_9 
REMARK       I    between atoms: N_9  and  C_10 
REMARK    3  A    between atoms: C_12  and  C_10 
REMARK    4  A    between atoms: C_16  and  O_17 
ROOT
ATOM      1  C   UNL d   1      -5.529  -7.258   4.708  0.00  0.00     0.272 C 
ATOM      2  O   UNL d   1      -5.710  -8.465   4.529  0.00  0.00    -0.266 OA
ATOM      3  N   UNL d   1      -5.298  -6.380   3.647  0.00  0.00    -0.263 N 
ATOM      4  H   UNL d   1      -5.112  -5.386   3.749  0.00  0.00     0.190 HD
ENDROOT
BRANCH   1   5
ATOM      5  C   UNL d   1      -5.567  -6.719   6.125  0.00  0.00     0.066 A 
ATOM      6  C   UNL d   1      -5.349  -5.363   6.421  0.00  0.00     0.020 A 
ATOM      7  C   UNL d   1      -5.420  -4.881   7.744  0.00  0.00     0.008 A 
ATOM      8  C   UNL d   1      -5.721  -5.738   8.806  0.00  0.00    -0.059 A 
ATOM      9  C   UNL d   1      -5.828  -5.250  10.224  0.00  0.00     0.048 C 
ATOM     10  C   UNL d   1      -5.927  -7.091   8.528  0.00  0.00     0.044 A 
ATOM     11  C   UNL d   1      -5.843  -7.575   7.214  0.00  0.00     0.082 A 
BRANCH  11  12
ATOM     12  O   UNL d   1      -6.052  -8.926   7.093  0.00  0.00    -0.360 OA
ATOM     13  H   UNL d   1      -5.967  -9.166   6.146  0.00  0.00     0.217 HD
ENDBRANCH  11  12
ENDBRANCH   1   5
BRANCH   3  14
ATOM     14  N   UNL d   1      -5.315  -6.853   2.287  0.00  0.00    -0.267 N 
ATOM     15  C   UNL d   1      -5.054  -5.947   1.258  0.00  0.00     0.240 C 
ATOM     16  O   UNL d   1      -4.976  -4.734   1.471  0.00  0.00    -0.271 OA
ATOM     17  H   UNL d   1      -5.308  -7.862   2.162  0.00  0.00     0.190 HD
BRANCH  15  18
ATOM     18  C   UNL d   1      -4.643  -6.478  -0.089  0.00  0.00     0.083 A 
ATOM     19  C   UNL d   1      -5.138  -7.796  -0.641  0.00  0.00     0.019 A 
ATOM     20  C   UNL d   1      -5.453  -6.525  -1.385  0.00  0.00    -0.005 A 
ATOM     21  C   UNL d   1      -4.775  -6.260  -2.708  0.00  0.00     0.011 C 
ENDBRANCH  15  18
ENDBRANCH   3  14
TORSDOF 4
