REMARK  4 active torsions:
REMARK  status: ('A' for Active; 'I' for Inactive)
REMARK    1  A    between atoms: C_6  and  C_7 
REMARK    2  A    between atoms: C_7  and  C_8 
REMARK    3  A    between atoms: C_8  and  N_9 
REMARK    4  A    between atoms: C_13  and  C_14 
ROOT
ATOM      1  N   UNL d   1      -5.789  -1.496   0.057  0.00  0.00    -0.341 N 
ATOM      2  C   UNL d   1      -6.644  -0.398  -0.005  0.00  0.00     0.109 A 
ATOM      3  C   UNL d   1      -7.914  -0.883  -0.027  0.00  0.00     0.107 A 
ATOM      4  N   UNL d   1      -7.797  -2.248  -0.031  0.00  0.00    -0.350 N 
ATOM      5  C   UNL d   1      -6.517  -2.637   0.048  0.00  0.00     0.117 A 
ATOM      6  H   UNL d   1      -8.575  -2.903  -0.007  0.00  0.00     0.166 HD
ENDROOT
BRANCH   1   7
ATOM      7  C   UNL d   1      -4.320  -1.454   0.011  0.00  0.00     0.137 C 
BRANCH   7   8
ATOM      8  C   UNL d   1      -3.733  -0.051   0.006  0.00  0.00     0.099 C 
BRANCH   8   9
ATOM      9  C   UNL d   1      -2.253  -0.014  -0.000  0.00  0.00     0.106 A 
ATOM     10  N   UNL d   1      -1.447  -1.125  -0.012  0.00  0.00    -0.343 N 
ATOM     11  C   UNL d   1      -0.148  -0.707   0.001  0.00  0.00     0.062 A 
ATOM     12  H   UNL d   1      -1.727  -2.092  -0.031  0.00  0.00     0.167 HD
ATOM     13  C   UNL d   1       1.047  -1.420   0.007  0.00  0.00     0.032 A 
ATOM     14  C   UNL d   1      -0.228   0.678   0.002  0.00  0.00     0.085 A 
ATOM     15  C   UNL d   1       2.215  -0.656  -0.001  0.00  0.00     0.002 A 
ATOM     16  C   UNL d   1       2.172   0.742  -0.011  0.00  0.00     0.002 A 
ATOM     17  C   UNL d   1       0.952   1.429  -0.004  0.00  0.00     0.034 A 
ATOM     18  N   UNL d   1      -1.537   1.087   0.006  0.00  0.00    -0.233 NA
ENDBRANCH   8   9
ENDBRANCH   7   8
ENDBRANCH   1   7
BRANCH   5  19
ATOM     19  C   UNL d   1      -6.035  -4.054   0.097  0.00  0.00     0.011 A 
ATOM     20  C   UNL d   1      -6.415  -4.944  -0.912  0.00  0.00     0.018 A 
ATOM     21  C   UNL d   1      -5.951  -6.263  -0.876  0.00  0.00     0.040 A 
ATOM     22  C   UNL d   1      -5.151  -6.696   0.182  0.00  0.00     0.102 A 
ATOM     23  C   UNL d   1      -4.779  -5.801   1.188  0.00  0.00     0.103 A 
ATOM     24  O   UNL d   1      -4.762  -8.008   0.165  0.00  0.00    -0.346 OA
ATOM     25  C   UNL d   1      -5.218  -4.478   1.148  0.00  0.00     0.054 A 
ATOM     26  O   UNL d   1      -3.997  -6.151   2.255  0.00  0.00    -0.346 OA
ATOM     27  C   UNL d   1      -3.333  -7.405   2.042  0.00  0.00     0.202 C 
ATOM     28  C   UNL d   1      -4.276  -8.437   1.444  0.00  0.00     0.202 C 
ENDBRANCH   5  19
TORSDOF 4
