@<TRIPOS>MOLECULE
*****
 56 59 0 0 0
SMALL
GASTEIGER

@<TRIPOS>ATOM
      1 O           1.3176    0.0033    0.5704 O.2     1  UNL1       -0.2518
      2 C           2.4859   -0.1365    0.1851 C.2     1  UNL1        0.3135
      3 N           3.2312    0.9465   -0.2408 N.am    1  UNL1       -0.2685
      4 C           4.2956    0.8298   -1.1470 C.ar    1  UNL1        0.0428
      5 C           4.8930    1.9606   -1.7131 C.ar    1  UNL1       -0.0400
      6 C           5.8490    1.8071   -2.7255 C.ar    1  UNL1       -0.0600
      7 C           6.2002    0.5370   -3.1735 C.ar    1  UNL1       -0.0612
      8 C           5.6045   -0.5818   -2.6060 C.ar    1  UNL1       -0.0519
      9 C           4.6660   -0.4462   -1.5699 C.ar    1  UNL1        0.0332
     10 C           3.9215   -1.6339   -1.0134 C.3     1  UNL1        0.2470
     11 O           4.8136   -2.7244   -0.7685 O.3     1  UNL1       -0.3602
     12 C           2.8415   -2.1300   -2.0636 C.2     1  UNL1        0.2692
     13 O           2.6576   -1.6114   -3.1663 O.2     1  UNL1       -0.2703
     14 N           2.1681   -3.2807   -1.6969 N.am    1  UNL1       -0.3112
     15 C           1.1715   -3.8358   -2.5613 C.3     1  UNL1        0.0129
     16 C           0.5423   -5.0869   -1.9633 C.3     1  UNL1       -0.0246
     17 C          -0.4441   -5.5816   -2.9875 C.3     1  UNL1        0.0005
     18 N          -1.3519   -6.6349   -2.5016 N.3     1  UNL1       -0.2979
     19 C          -1.1804   -7.9279   -3.2250 C.3     1  UNL1        0.0224
     20 C          -1.4225   -7.8219   -4.7454 C.3     1  UNL1        0.0604
     21 O          -2.7056   -7.2400   -5.0364 O.3     1  UNL1       -0.3772
     22 C          -2.8694   -5.9839   -4.3641 C.3     1  UNL1        0.0604
     23 C          -2.7225   -6.1616   -2.8337 C.3     1  UNL1        0.0224
     24 N           3.1716   -1.3440    0.1980 N.am    1  UNL1       -0.2144
     25 C           3.4263   -1.9922    1.4500 C.ar    1  UNL1        0.0427
     26 C           2.3764   -2.5819    2.1626 C.ar    1  UNL1       -0.0386
     27 C           2.6233   -3.2713    3.3619 C.ar    1  UNL1       -0.0402
     28 C           3.8930   -3.2502    3.9426 C.ar    1  UNL1        0.0594
     29 CL          4.0875   -3.9698    5.5032 Cl      1  UNL1       -0.0820
     30 C           4.9432   -2.6351    3.2592 C.ar    1  UNL1        0.0610
     31 CL          6.5315   -2.5145    3.9357 Cl      1  UNL1       -0.0820
     32 C           4.7205   -2.0678    1.9928 C.ar    1  UNL1       -0.0203
     33 H           2.8766    1.8629    0.0046 H       1  UNL1        0.1564
     34 H           4.6048    2.9659   -1.4175 H       1  UNL1        0.0636
     35 H           6.3053    2.6772   -3.1916 H       1  UNL1        0.0618
     36 H           6.9192    0.4087   -3.9788 H       1  UNL1        0.0618
     37 H           5.8425   -1.5563   -3.0218 H       1  UNL1        0.0622
     38 H           5.2775   -2.8968   -1.6003 H       1  UNL1        0.2129
     39 H           2.3204   -3.6693   -0.7729 H       1  UNL1        0.1488
     40 H           1.6356   -4.0548   -3.5324 H       1  UNL1        0.0462
     41 H           0.4122   -3.0617   -2.7488 H       1  UNL1        0.0462
     42 H           0.0263   -4.8301   -1.0308 H       1  UNL1        0.0293
     43 H           1.2937   -5.8508   -1.7464 H       1  UNL1        0.0293
     44 H           0.0771   -5.8439   -3.9131 H       1  UNL1        0.0427
     45 H          -1.0245   -4.6799   -3.2264 H       1  UNL1        0.0427
     46 H          -1.9141   -8.6408   -2.8183 H       1  UNL1        0.0449
     47 H          -0.1968   -8.3660   -3.0174 H       1  UNL1        0.0449
     48 H          -1.3965   -8.8149   -5.2049 H       1  UNL1        0.0572
     49 H          -0.6358   -7.2375   -5.2355 H       1  UNL1        0.0572
     50 H          -3.8469   -5.5599   -4.5994 H       1  UNL1        0.0572
     51 H          -2.1371   -5.2850   -4.7902 H       1  UNL1        0.0572
     52 H          -3.4613   -6.8741   -2.4489 H       1  UNL1        0.0449
     53 H          -2.9016   -5.2172   -2.3025 H       1  UNL1        0.0449
     54 H           1.3608   -2.5502    1.7744 H       1  UNL1        0.0637
     55 H           1.8166   -3.8178    3.8466 H       1  UNL1        0.0633
     56 H           5.5690   -1.6598    1.4498 H       1  UNL1        0.0651
@<TRIPOS>BOND
     1     1     2    2
     2     2     3   am
     3     3     4    1
     4     4     5   ar
     5     5     6   ar
     6     6     7   ar
     7     7     8   ar
     8     8     9   ar
     9     4     9   ar
    10     9    10    1
    11    10    11    1
    12    10    12    1
    13    12    13    2
    14    12    14   am
    15    14    15    1
    16    15    16    1
    17    16    17    1
    18    17    18    1
    19    18    19    1
    20    19    20    1
    21    20    21    1
    22    21    22    1
    23    22    23    1
    24    18    23    1
    25    10    24    1
    26     2    24   am
    27    24    25    1
    28    25    26   ar
    29    26    27   ar
    30    27    28   ar
    31    28    29    1
    32    28    30   ar
    33    30    31    1
    34    30    32   ar
    35    25    32   ar
    36     3    33    1
    37     5    34    1
    38     6    35    1
    39     7    36    1
    40     8    37    1
    41    11    38    1
    42    14    39    1
    43    15    40    1
    44    15    41    1
    45    16    42    1
    46    16    43    1
    47    17    44    1
    48    17    45    1
    49    19    46    1
    50    19    47    1
    51    20    48    1
    52    20    49    1
    53    22    50    1
    54    22    51    1
    55    23    52    1
    56    23    53    1
    57    26    54    1
    58    27    55    1
    59    32    56    1
