@<TRIPOS>MOLECULE
*****
 44 46 0 0 0
SMALL
GASTEIGER

@<TRIPOS>ATOM
      1 C           0.9379    0.3341   -0.0298 C.3     1  UNL1       -0.0022
      2 N           2.3633    0.1169    0.1000 N.pl3   1  UNL1       -0.3417
      3 C           3.0326   -0.9140    0.7412 C.ar    1  UNL1        0.1051
      4 C           4.2703   -0.5241    1.3291 C.ar    1  UNL1       -0.0335
      5 C           5.1593   -1.4281    1.9564 C.ar    1  UNL1       -0.0474
      6 C           4.8212   -2.7743    2.0960 C.ar    1  UNL1        0.0447
      7 C           5.7144   -3.7299    2.8584 C.2     1  UNL1        0.2604
      8 O           6.7668   -3.3215    3.3454 O.2     1  UNL1       -0.2687
      9 N           5.2936   -5.0538    3.0120 N.am    1  UNL1       -0.2301
     10 N           6.0607   -5.9541    3.8008 N.am    1  UNL1       -0.2289
     11 C           5.6884   -7.2964    3.8878 C.2     1  UNL1        0.2779
     12 O           4.7008   -7.7374    3.3124 O.2     1  UNL1       -0.2670
     13 C           6.5652   -8.1145    4.6975 C.ar    1  UNL1        0.1222
     14 C           7.1355   -7.8594    5.9283 C.ar    1  UNL1       -0.0041
     15 C           7.9287   -8.9883    6.2531 C.ar    1  UNL1        0.0932
     16 C           8.7184   -9.1764    7.4683 C.ar    1  UNL1        0.0021
     17 C          10.0974   -9.4139    7.4120 C.ar    1  UNL1       -0.0525
     18 C          10.8216   -9.6483    8.5874 C.ar    1  UNL1       -0.0611
     19 C          10.1892   -9.5742    9.8284 C.ar    1  UNL1       -0.0617
     20 C           8.8244   -9.3030    9.8956 C.ar    1  UNL1       -0.0611
     21 C           8.0915   -9.1101    8.7210 C.ar    1  UNL1       -0.0525
     22 N           7.8394   -9.9149    5.2873 N.ar    1  UNL1       -0.1732
     23 N           6.9580   -9.3970    4.4028 N.ar    1  UNL1       -0.2719
     24 C           3.6037   -3.1729    1.5517 C.ar    1  UNL1        0.0296
     25 C           2.6948   -2.2744    0.9098 C.ar    1  UNL1        0.2944
     26 N           1.4563   -2.9494    0.4463 N.pl3   1  UNL1        0.0815
     27 O           1.3670   -4.1693    0.6443 O.2     1  UNL1        0.0415
     28 O           0.5493   -2.3152   -0.0911 O.co2   1  UNL1       -0.5760
     29 H           0.7477    1.2942   -0.5199 H       1  UNL1        0.0425
     30 H           0.4653    0.3517    0.9563 H       1  UNL1        0.0425
     31 H           0.4454   -0.3665   -0.6962 H       1  UNL1        0.0425
     32 H           2.9282    0.6793   -0.5346 H       1  UNL1        0.1459
     33 H           4.5467    0.5352    1.3339 H       1  UNL1        0.0638
     34 H           6.1137   -1.0567    2.3309 H       1  UNL1        0.0626
     35 H           4.4209   -5.4391    2.6624 H       1  UNL1        0.1731
     36 H           6.9389   -5.6021    4.1738 H       1  UNL1        0.1732
     37 H           6.9930   -6.9760    6.5317 H       1  UNL1        0.0662
     38 H          10.6167   -9.4126    6.4566 H       1  UNL1        0.0624
     39 H          11.8780   -9.9006    8.5355 H       1  UNL1        0.0618
     40 H          10.7590   -9.7296   10.7416 H       1  UNL1        0.0618
     41 H           8.3254   -9.2608   10.8604 H       1  UNL1        0.0618
     42 H           7.0231   -8.9218    8.7898 H       1  UNL1        0.0624
     43 H           6.7060   -9.9636    3.5970 H       1  UNL1        0.1891
     44 H           3.3348   -4.2207    1.6055 H       1  UNL1        0.0693
@<TRIPOS>UNITY_ATOM_ATTR
26 1
charge 1
28 1
charge -1
@<TRIPOS>BOND
     1     1     2    1
     2     2     3    1
     3     3     4   ar
     4     4     5   ar
     5     5     6   ar
     6     6     7    1
     7     7     8    2
     8     7     9   am
     9     9    10    1
    10    10    11   am
    11    11    12    2
    12    11    13    1
    13    13    14   ar
    14    14    15   ar
    15    15    16    1
    16    16    17   ar
    17    17    18   ar
    18    18    19   ar
    19    19    20   ar
    20    20    21   ar
    21    16    21   ar
    22    15    22   ar
    23    22    23   ar
    24    13    23   ar
    25     6    24   ar
    26    24    25   ar
    27     3    25   ar
    28    25    26    1
    29    26    27    2
    30    26    28    1
    31     1    29    1
    32     1    30    1
    33     1    31    1
    34     2    32    1
    35     4    33    1
    36     5    34    1
    37     9    35    1
    38    10    36    1
    39    14    37    1
    40    17    38    1
    41    18    39    1
    42    19    40    1
    43    20    41    1
    44    21    42    1
    45    23    43    1
    46    24    44    1
