REMARK  7 active torsions:
REMARK  status: ('A' for Active; 'I' for Inactive)
REMARK    1  A    between atoms: C_2  and  O_3 
REMARK    2  A    between atoms: O_3  and  C_4 
REMARK    3  A    between atoms: C_4  and  C_6 
REMARK    4  A    between atoms: C_9  and  N_10 
REMARK       I    between atoms: N_10  and  C_11 
REMARK    5  A    between atoms: C_13  and  C_11 
REMARK    6  A    between atoms: C_18  and  N_19 
REMARK    7  A    between atoms: N_19  and  C_20 
ROOT
ATOM      1  C   UNL d   1       5.742   9.183  -2.712  0.00  0.00     0.156 C 
ATOM      2  C   UNL d   1       6.454   9.753  -1.513  0.00  0.00     0.130 C 
ATOM      3  C   UNL d   1       6.114  11.160  -1.140  0.00  0.00     0.247 C 
ATOM      4  O   UNL d   1       6.689  11.650  -0.163  0.00  0.00    -0.271 OA
ATOM      5  N   UNL d   1       5.263  11.901  -1.898  0.00  0.00    -0.189 NA
ATOM      6  C   UNL d   1       4.380  11.429  -2.707  0.00  0.00     0.171 C 
ATOM      7  S   UNL d   1       4.096   9.758  -3.024  0.00  0.00    -0.077 SA
ENDROOT
BRANCH   1   8
ATOM      8  C   UNL d   1       6.650   9.179  -3.926  0.00  0.00     0.236 C 
ATOM      9  N   UNL d   1       6.507  10.180  -4.887  0.00  0.00    -0.326 N 
ATOM     10  H   UNL d   1       5.761  10.857  -4.778  0.00  0.00     0.169 HD
ATOM     11  O   UNL d   1       7.498   8.283  -3.943  0.00  0.00    -0.272 OA
BRANCH   9  12
ATOM     12  C   UNL d   1       7.193  10.203  -6.136  0.00  0.00     0.034 A 
ATOM     13  C   UNL d   1       6.870  11.138  -7.133  0.00  0.00     0.030 A 
ATOM     14  C   UNL d   1       7.469  11.048  -8.415  0.00  0.00     0.020 A 
ATOM     15  C   UNL d   1       8.433  10.061  -8.683  0.00  0.00     0.039 A 
ATOM     16  C   UNL d   1       8.782   9.173  -7.677  0.00  0.00     0.020 A 
ATOM     17  C   UNL d   1       8.175   9.258  -6.430  0.00  0.00     0.030 A 
BRANCH  15  18
ATOM     18  C   UNL d   1       9.206  10.016  -9.947  0.00  0.00     0.293 C 
ATOM     19  O   UNL d   1       9.629  11.023 -10.503  0.00  0.00    -0.259 OA
BRANCH  18  20
ATOM     20  O   UNL d   1       9.400   8.730 -10.351  0.00  0.00    -0.318 OA
BRANCH  20  21
ATOM     21  C   UNL d   1      10.196   8.585 -11.541  0.00  0.00     0.174 C 
ATOM     22  C   UNL d   1      10.286   7.116 -11.931  0.00  0.00     0.034 C 
ENDBRANCH  20  21
ENDBRANCH  18  20
ENDBRANCH  15  18
ENDBRANCH   9  12
ENDBRANCH   1   8
BRANCH   6  23
ATOM     23  N   UNL d   1       3.539  12.158  -3.482  0.00  0.00    -0.335 N 
ATOM     24  H   UNL d   1       2.909  11.654  -4.090  0.00  0.00     0.168 HD
BRANCH  23  25
ATOM     25  C   UNL d   1       3.209  13.484  -3.232  0.00  0.00     0.034 A 
ATOM     26  C   UNL d   1       1.887  13.842  -2.976  0.00  0.00     0.030 A 
ATOM     27  C   UNL d   1       1.559  15.181  -2.803  0.00  0.00     0.009 A 
ATOM     28  C   UNL d   1       2.563  16.160  -2.790  0.00  0.00    -0.056 A 
ATOM     29  C   UNL d   1       2.202  17.576  -2.460  0.00  0.00     0.049 C 
ATOM     30  C   UNL d   1       3.899  15.795  -3.022  0.00  0.00    -0.054 A 
ATOM     31  C   UNL d   1       5.027  16.777  -3.120  0.00  0.00     0.049 C 
ATOM     32  C   UNL d   1       4.208  14.451  -3.213  0.00  0.00     0.036 A 
ENDBRANCH  23  25
ENDBRANCH   6  23
TORSDOF 7
