@<TRIPOS>MOLECULE
*****
 49 50 0 0 0
SMALL
GASTEIGER

@<TRIPOS>ATOM
      1 C           0.9422   -0.0317    0.0917 C.3     1  UNL1        0.0788
      2 O           2.3599    0.0560    0.1726 O.3     1  UNL1       -0.4951
      3 C           3.0214   -1.0327    0.6689 C.ar    1  UNL1        0.1203
      4 C           4.2196   -0.7615    1.3305 C.ar    1  UNL1       -0.0165
      5 C           5.0637   -1.8063    1.7401 C.ar    1  UNL1       -0.0165
      6 C           4.6869   -3.1416    1.5610 C.ar    1  UNL1        0.1208
      7 O           5.5462   -4.0945    2.0580 O.3     1  UNL1       -0.4904
      8 C           5.1101   -5.4653    1.9852 C.3     1  UNL1        0.1051
      9 C           6.1132   -6.4032    2.6803 C.3     1  UNL1        0.0472
     10 N           5.7709   -7.8300    2.6187 N.am    1  UNL1       -0.2962
     11 C           6.5955   -8.7610    3.2132 C.2     1  UNL1        0.2998
     12 O           7.6338   -8.4699    3.7781 O.2     1  UNL1       -0.2529
     13 N           6.1168  -10.0486    3.1539 N.am    1  UNL1       -0.2979
     14 C           6.9059  -11.1536    3.7175 C.3     1  UNL1        0.0285
     15 C           6.2072  -12.5111    3.5548 C.3     1  UNL1        0.0249
     16 N           7.0238  -13.6480    3.9744 N.pl3   1  UNL1       -0.3371
     17 C           6.7194  -14.9801    3.7167 C.ar    1  UNL1        0.1054
     18 C           6.8612  -15.8798    4.8070 C.ar    1  UNL1       -0.0342
     19 C           6.6301  -17.2602    4.6877 C.ar    1  UNL1       -0.0596
     20 C           6.1732  -17.7819    3.4892 C.ar    1  UNL1       -0.0552
     21 C           5.9948  -16.9310    2.4056 C.ar    1  UNL1        0.0175
     22 C           6.2699  -15.5462    2.5029 C.ar    1  UNL1        0.2937
     23 N           6.1532  -14.8138    1.2287 N.pl3   1  UNL1        0.0815
     24 O           5.4009  -15.2949    0.3669 O.2     1  UNL1        0.0415
     25 O           6.8331  -13.7965    1.0385 O.co2   1  UNL1       -0.5760
     26 C           3.4824   -3.4046    0.9064 C.ar    1  UNL1       -0.0165
     27 C           2.6550   -2.3594    0.4615 C.ar    1  UNL1       -0.0165
     28 H           0.5837    0.8629   -0.4294 H       1  UNL1        0.0660
     29 H           0.5136   -0.0298    1.0979 H       1  UNL1        0.0660
     30 H           0.5897   -0.8932   -0.4821 H       1  UNL1        0.0660
     31 H           4.4994    0.2717    1.5261 H       1  UNL1        0.0655
     32 H           6.0241   -1.5622    2.1881 H       1  UNL1        0.0655
     33 H           5.0278   -5.7566    0.9322 H       1  UNL1        0.0712
     34 H           4.1344   -5.5722    2.4751 H       1  UNL1        0.0712
     35 H           6.2064   -6.1277    3.7381 H       1  UNL1        0.0496
     36 H           7.1095   -6.2725    2.2425 H       1  UNL1        0.0496
     37 H           4.9359   -8.1285    2.1401 H       1  UNL1        0.1504
     38 H           5.3701  -10.2686    2.5128 H       1  UNL1        0.1503
     39 H           7.0906  -10.9401    4.7763 H       1  UNL1        0.0478
     40 H           7.8817  -11.1682    3.2136 H       1  UNL1        0.0478
     41 H           5.9323  -12.5578    2.5083 H       1  UNL1        0.0476
     42 H           5.2559  -12.5312    4.0944 H       1  UNL1        0.0476
     43 H           7.8935  -13.4656    4.4715 H       1  UNL1        0.1463
     44 H           7.1402  -15.5066    5.7935 H       1  UNL1        0.0638
     45 H           6.8088  -17.9280    5.5291 H       1  UNL1        0.0618
     46 H           5.9620  -18.8434    3.3857 H       1  UNL1        0.0620
     47 H           5.6685  -17.3663    1.4627 H       1  UNL1        0.0686
     48 H           3.1631   -4.4187    0.6963 H       1  UNL1        0.0655
     49 H           1.7496   -2.6216   -0.0737 H       1  UNL1        0.0655
@<TRIPOS>UNITY_ATOM_ATTR
23 1
charge 1
25 1
charge -1
@<TRIPOS>BOND
     1     1     2    1
     2     2     3    1
     3     3     4   ar
     4     4     5   ar
     5     5     6   ar
     6     6     7    1
     7     7     8    1
     8     8     9    1
     9     9    10    1
    10    10    11   am
    11    11    12    2
    12    11    13   am
    13    13    14    1
    14    14    15    1
    15    15    16    1
    16    16    17    1
    17    17    18   ar
    18    18    19   ar
    19    19    20   ar
    20    20    21   ar
    21    21    22   ar
    22    17    22   ar
    23    22    23    1
    24    23    24    2
    25    23    25    1
    26     6    26   ar
    27    26    27   ar
    28     3    27   ar
    29     1    28    1
    30     1    29    1
    31     1    30    1
    32     4    31    1
    33     5    32    1
    34     8    33    1
    35     8    34    1
    36     9    35    1
    37     9    36    1
    38    10    37    1
    39    13    38    1
    40    14    39    1
    41    14    40    1
    42    15    41    1
    43    15    42    1
    44    16    43    1
    45    18    44    1
    46    19    45    1
    47    20    46    1
    48    21    47    1
    49    26    48    1
    50    27    49    1
