@<TRIPOS>MOLECULE
*****
 50 50 0 0 0
SMALL
GASTEIGER

@<TRIPOS>ATOM
      1 C           9.5350  -21.3646   -5.1289 C.3     1  UNL1       -0.0416
      2 C           9.7453  -19.9731   -4.5614 C.3     1  UNL1        0.0449
      3 O          10.9576  -19.4032   -5.0779 O.3     1  UNL1       -0.3796
      4 C          11.1596  -18.0861   -4.5428 C.3     1  UNL1        0.0559
      5 C          12.4476  -17.4460   -5.0739 C.3     1  UNL1        0.0488
      6 C          12.6322  -16.0406   -4.4818 C.2     1  UNL1        0.2312
      7 O          11.8323  -15.5368   -3.6935 O.2     1  UNL1       -0.2742
      8 N          13.7666  -15.3625   -4.8912 N.am    1  UNL1       -0.2351
      9 N          14.0655  -14.0287   -4.4047 N.am    1  UNL1       -0.2455
     10 C          15.2284  -13.3836   -4.8540 C.2     1  UNL1        0.1533
     11 S          16.2498  -14.1819   -5.9384 S.2     1  UNL1       -0.0170
     12 N          15.4431  -12.0884   -4.3312 N.am    1  UNL1       -0.2627
     13 C          16.5116  -11.2398   -4.6581 C.2     1  UNL1        0.2495
     14 O          17.4152  -11.5122   -5.4571 O.2     1  UNL1       -0.2698
     15 C          16.6437   -9.8927   -4.0451 C.ar    1  UNL1        0.0373
     16 C          17.2209   -8.9090   -4.8544 C.ar    1  UNL1       -0.0462
     17 C          17.7092   -7.7367   -4.2960 C.ar    1  UNL1       -0.0192
     18 C          17.4019   -7.3835   -2.9937 C.ar    1  UNL1        0.1209
     19 O          17.5695   -6.1336   -2.4702 O.3     1  UNL1       -0.4891
     20 C          17.9078   -5.0150   -3.3257 C.3     1  UNL1        0.0972
     21 C          17.0776   -4.8716   -4.6163 C.3     1  UNL1       -0.0278
     22 C          19.4266   -4.9457   -3.5487 C.3     1  UNL1       -0.0189
     23 C          20.1815   -4.8084   -2.2315 C.3     1  UNL1       -0.0619
     24 C          16.8534   -8.3668   -2.1644 C.ar    1  UNL1       -0.0192
     25 C          16.5050   -9.6348   -2.6797 C.ar    1  UNL1       -0.0462
     26 H           8.6112  -21.8055   -4.7387 H       1  UNL1        0.0252
     27 H          10.3711  -22.0213   -4.8693 H       1  UNL1        0.0252
     28 H           9.4724  -21.3343   -6.2210 H       1  UNL1        0.0252
     29 H           9.8042  -20.0333   -3.4686 H       1  UNL1        0.0557
     30 H           8.8949  -19.3383   -4.8360 H       1  UNL1        0.0557
     31 H          11.2069  -18.1592   -3.4502 H       1  UNL1        0.0564
     32 H          10.2988  -17.4650   -4.8159 H       1  UNL1        0.0564
     33 H          12.4063  -17.3949   -6.1689 H       1  UNL1        0.0381
     34 H          13.3044  -18.0815   -4.8182 H       1  UNL1        0.0381
     35 H          14.4469  -15.7557   -5.5430 H       1  UNL1        0.1728
     36 H          13.3769  -13.6432   -3.7605 H       1  UNL1        0.1718
     37 H          14.7480  -11.7083   -3.7034 H       1  UNL1        0.1569
     38 H          17.3676   -9.0650   -5.9223 H       1  UNL1        0.0626
     39 H          18.3350   -7.1222   -4.9289 H       1  UNL1        0.0654
     40 H          17.6409   -4.1255   -2.7362 H       1  UNL1        0.0730
     41 H          17.2241   -5.6565   -5.3560 H       1  UNL1        0.0265
     42 H          17.3315   -3.9529   -5.1510 H       1  UNL1        0.0265
     43 H          16.0086   -4.8873   -4.3850 H       1  UNL1        0.0265
     44 H          19.6778   -4.1015   -4.2005 H       1  UNL1        0.0298
     45 H          19.7914   -5.8518   -4.0391 H       1  UNL1        0.0298
     46 H          19.9212   -3.8713   -1.7295 H       1  UNL1        0.0231
     47 H          21.2603   -4.8113   -2.4134 H       1  UNL1        0.0231
     48 H          19.9540   -5.6364   -1.5525 H       1  UNL1        0.0231
     49 H          16.7353   -8.1628   -1.1013 H       1  UNL1        0.0654
     50 H          16.1851  -10.4145   -1.9986 H       1  UNL1        0.0626
@<TRIPOS>BOND
     1     1     2    1
     2     2     3    1
     3     3     4    1
     4     4     5    1
     5     5     6    1
     6     6     7    2
     7     6     8   am
     8     8     9    1
     9     9    10    1
    10    10    11    2
    11    10    12    1
    12    12    13   am
    13    13    14    2
    14    13    15    1
    15    15    16   ar
    16    16    17   ar
    17    17    18   ar
    18    18    19    1
    19    20    22    1
    20    22    23    1
    21    18    24   ar
    22    24    25   ar
    23    15    25   ar
    24    20    21    1
    25    20    19    1
    26     1    26    1
    27     1    27    1
    28     1    28    1
    29     2    29    1
    30     2    30    1
    31     4    31    1
    32     4    32    1
    33     5    33    1
    34     5    34    1
    35     8    35    1
    36     9    36    1
    37    12    37    1
    38    16    38    1
    39    17    39    1
    40    20    40    1
    41    21    41    1
    42    21    42    1
    43    21    43    1
    44    22    44    1
    45    22    45    1
    46    23    46    1
    47    23    47    1
    48    23    48    1
    49    24    49    1
    50    25    50    1
