REMARK  4 active torsions:
REMARK  status: ('A' for Active; 'I' for Inactive)
REMARK       I    between atoms: C_2  and  N_3 
REMARK    1  A    between atoms: C_2  and  C_14 
REMARK    2  A    between atoms: N_3  and  N_4 
REMARK       I    between atoms: N_4  and  C_5 
REMARK    3  A    between atoms: C_5  and  C_7 
REMARK    4  A    between atoms: C_12  and  O_13 
ROOT
ATOM      1  O   UNL d   1       0.951   0.117  -0.056  0.00  0.00    -0.265 OA
ATOM      2  C   UNL d   1       2.187   0.066  -0.041  0.00  0.00     0.277 C 
ATOM      3  N   UNL d   1       2.908   0.657   0.997  0.00  0.00    -0.263 N 
ATOM      4  H   UNL d   1       3.924   0.729   0.996  0.00  0.00     0.190 HD
ENDROOT
BRANCH   3   5
ATOM      5  N   UNL d   1       2.233   1.390   2.020  0.00  0.00    -0.263 N 
ATOM      6  C   UNL d   1       2.973   2.048   2.993  0.00  0.00     0.272 C 
ATOM      7  O   UNL d   1       4.204   2.097   2.964  0.00  0.00    -0.266 OA
ATOM      8  H   UNL d   1       1.217   1.314   2.059  0.00  0.00     0.190 HD
BRANCH   6   9
ATOM      9  C   UNL d   1       2.235   2.740   4.101  0.00  0.00     0.066 A 
ATOM     10  C   UNL d   1       2.739   3.966   4.577  0.00  0.00     0.020 A 
ATOM     11  C   UNL d   1       2.152   4.611   5.675  0.00  0.00     0.001 A 
ATOM     12  C   UNL d   1       1.071   4.026   6.330  0.00  0.00     0.003 A 
ATOM     13  C   UNL d   1       0.558   2.810   5.869  0.00  0.00     0.037 A 
ATOM     14  C   UNL d   1       1.128   2.180   4.750  0.00  0.00     0.081 A 
BRANCH  14  15
ATOM     15  O   UNL d   1       0.611   0.995   4.306  0.00  0.00    -0.360 OA
ATOM     16  H   UNL d   1      -0.124   0.724   4.883  0.00  0.00     0.217 HD
ENDBRANCH  14  15
ENDBRANCH   6   9
ENDBRANCH   3   5
BRANCH   2  17
ATOM     17  C   UNL d   1       2.983  -0.596  -1.080  0.00  0.00     0.075 A 
ATOM     18  C   UNL d   1       4.131  -1.357  -0.959  0.00  0.00     0.037 A 
ATOM     19  C   UNL d   1       4.666  -1.814  -2.217  0.00  0.00    -0.018 A 
ATOM     20  C   UNL d   1       5.833  -2.567  -2.499  0.00  0.00     0.013 A 
ATOM     21  C   UNL d   1       3.866  -1.413  -3.289  0.00  0.00     0.016 A 
ATOM     22  C   UNL d   1       6.186  -2.882  -3.816  0.00  0.00     0.001 A 
ATOM     23  C   UNL d   1       5.381  -2.472  -4.867  0.00  0.00     0.001 A 
ATOM     24  C   UNL d   1       4.212  -1.740  -4.623  0.00  0.00     0.019 A 
ATOM     25  S   UNL d   1       2.493  -0.523  -2.726  0.00  0.00    -0.084 SA
ENDBRANCH   2  17
TORSDOF 4
