REMARK  6 active torsions:
REMARK  status: ('A' for Active; 'I' for Inactive)
REMARK    1  A    between atoms: S_2  and  C_3 
REMARK    2  A    between atoms: C_6  and  N_7 
REMARK       I    between atoms: N_7  and  C_8 
REMARK    3  A    between atoms: C_8  and  C_10 
REMARK    4  A    between atoms: C_14  and  S_15 
REMARK    5  A    between atoms: S_15  and  N_18 
REMARK    6  A    between atoms: N_18  and  C_19 
ROOT
ATOM      1  C   UNL d   1       4.374   8.187  -0.263  0.00  0.00     0.033 A 
ATOM      2  C   UNL d   1       3.579   9.252   0.192  0.00  0.00     0.017 A 
ATOM      3  C   UNL d   1       3.970  10.571  -0.023  0.00  0.00     0.003 A 
ATOM      4  C   UNL d   1       5.179  10.830  -0.660  0.00  0.00     0.025 A 
ATOM      5  C   UNL d   1       5.956   9.763  -1.141  0.00  0.00     0.080 A 
ATOM      6  C   UNL d   1       5.567   8.438  -0.933  0.00  0.00     0.042 A 
ENDROOT
BRANCH   5   7
ATOM      7  S   UNL d   1       7.419  10.194  -2.046  0.00  0.00     0.263 S 
ATOM      8  O   UNL d   1       7.006  11.003  -3.170  0.00  0.00    -0.200 OA
ATOM      9  O   UNL d   1       8.308  10.717  -1.030  0.00  0.00    -0.200 OA
BRANCH   7  10
ATOM     10  N   UNL d   1       8.019   8.742  -2.695  0.00  0.00    -0.281 N 
ATOM     11  H   UNL d   1       7.743   7.861  -2.283  0.00  0.00     0.179 HD
BRANCH  10  12
ATOM     12  C   UNL d   1       9.345   8.732  -3.205  0.00  0.00     0.044 C 
ATOM     13  C   UNL d   1       9.688   8.029  -4.351  0.00  0.00     0.029 C 
ATOM     14  C   UNL d   1      11.019   8.140  -4.811  0.00  0.00     0.024 C 
ATOM     15  C   UNL d   1      11.971   8.754  -3.974  0.00  0.00     0.171 C 
ATOM     16  C   UNL d   1      11.683   8.812  -2.648  0.00  0.00     0.093 C 
ATOM     17  O   UNL d   1      12.551  10.066  -4.188  0.00  0.00    -0.341 OA
ATOM     18  C   UNL d   1      10.372   9.134  -2.374  0.00  0.00     0.066 C 
ATOM     19  O   UNL d   1      12.674   9.431  -1.925  0.00  0.00    -0.327 OA
ATOM     20  C   UNL d   1      12.748  10.549  -2.798  0.00  0.00     0.346 C 
ENDBRANCH  10  12
ENDBRANCH   7  10
ENDBRANCH   5   7
BRANCH   1  21
ATOM     21  C   UNL d   1       3.767   6.832  -0.247  0.00  0.00     0.256 C 
ATOM     22  N   UNL d   1       4.591   5.746   0.084  0.00  0.00    -0.323 N 
ATOM     23  H   UNL d   1       5.556   5.912   0.332  0.00  0.00     0.169 HD
ATOM     24  O   UNL d   1       2.602   6.800  -0.557  0.00  0.00    -0.267 OA
BRANCH  22  25
ATOM     25  C   UNL d   1       4.149   4.391   0.081  0.00  0.00     0.035 A 
ATOM     26  C   UNL d   1       5.041   3.353   0.375  0.00  0.00     0.031 A 
ATOM     27  C   UNL d   1       4.629   2.005   0.258  0.00  0.00     0.021 A 
ATOM     28  C   UNL d   1       3.303   1.670  -0.059  0.00  0.00    -0.000 A 
ATOM     29  C   UNL d   1       2.422   2.709  -0.319  0.00  0.00     0.021 A 
ATOM     30  C   UNL d   1       2.840   4.038  -0.242  0.00  0.00     0.031 A 
BRANCH  28  31
ATOM     31  S   UNL d   1       2.805  -0.048  -0.093  0.00  0.00    -0.134 SA
ATOM     32  C   UNL d   1       0.980   0.037  -0.041  0.00  0.00     0.095 C 
ENDBRANCH  28  31
ENDBRANCH  22  25
ENDBRANCH   1  21
TORSDOF 6
