REMARK  7 active torsions:
REMARK  status: ('A' for Active; 'I' for Inactive)
REMARK    1  A    between atoms: C_5  and  N_6 
REMARK       I    between atoms: N_6  and  C_7 
REMARK    2  A    between atoms: C_7  and  C_9 
REMARK    3  A    between atoms: C_9  and  N_10 
REMARK    4  A    between atoms: N_10  and  C_11 
REMARK    5  A    between atoms: C_14  and  C_15 
REMARK       I    between atoms: C_15  and  N_17 
REMARK    6  A    between atoms: N_17  and  C_18 
REMARK    7  A    between atoms: C_18  and  C_19 
ROOT
ATOM      1  C   UNL d   1      -4.591  -6.375  -0.068  0.00  0.00     0.028 A 
ATOM      2  C   UNL d   1      -4.543  -7.563   0.668  0.00  0.00     0.030 A 
ATOM      3  C   UNL d   1      -5.537  -8.543   0.531  0.00  0.00     0.019 A 
ATOM      4  C   UNL d   1      -6.638  -8.329  -0.313  0.00  0.00     0.032 A 
ATOM      5  C   UNL d   1      -6.673  -7.154  -1.066  0.00  0.00     0.019 A 
ATOM      6  C   UNL d   1      -5.665  -6.191  -0.935  0.00  0.00     0.030 A 
ENDROOT
BRANCH   1   7
ATOM      7  N   UNL d   1      -3.610  -5.433   0.115  0.00  0.00    -0.381 N 
ATOM      8  H   UNL d   1      -2.636  -5.744   0.032  0.00  0.00     0.160 HD
BRANCH   7   9
ATOM      9  C   UNL d   1      -3.791  -3.987  -0.026  0.00  0.00     0.223 C 
BRANCH   9  10
ATOM     10  C   UNL d   1      -2.403  -3.335  -0.024  0.00  0.00     0.239 C 
ATOM     11  N   UNL d   1      -2.386  -1.942  -0.013  0.00  0.00    -0.325 N 
ATOM     12  H   UNL d   1      -3.277  -1.466  -0.010  0.00  0.00     0.169 HD
ATOM     13  O   UNL d   1      -1.417  -4.076  -0.045  0.00  0.00    -0.271 OA
BRANCH  11  14
ATOM     14  C   UNL d   1      -1.208  -1.137  -0.006  0.00  0.00     0.040 A 
ATOM     15  C   UNL d   1       0.055  -1.742   0.000  0.00  0.00     0.030 A 
ATOM     16  C   UNL d   1       1.240  -1.019   0.005  0.00  0.00     0.009 A 
ATOM     17  C   UNL d   1       1.212   0.365  -0.000  0.00  0.00    -0.061 A 
ATOM     18  C   UNL d   1       2.511   1.111   0.008  0.00  0.00     0.048 C 
ATOM     19  C   UNL d   1      -0.036   1.007  -0.007  0.00  0.00     0.015 A 
ATOM     20  C   UNL d   1      -1.258   0.274  -0.005  0.00  0.00    -0.035 A 
ATOM     21  C   UNL d   1      -2.535   1.075  -0.005  0.00  0.00     0.050 C 
ENDBRANCH  11  14
ENDBRANCH   9  10
ENDBRANCH   7   9
ENDBRANCH   1   7
BRANCH   4  22
ATOM     22  C   UNL d   1      -7.752  -9.331  -0.334  0.00  0.00     0.251 C 
ATOM     23  O   UNL d   1      -7.677 -10.342   0.370  0.00  0.00    -0.268 OA
ATOM     24  N   UNL d   1      -8.857  -9.074  -1.126  0.00  0.00    -0.351 N 
ATOM     25  H   UNL d   1      -8.960  -8.227  -1.662  0.00  0.00     0.163 HD
BRANCH  24  26
ATOM     26  C   UNL d   1      -9.983  -9.979  -1.123  0.00  0.00     0.187 C 
BRANCH  26  27
ATOM     27  C   UNL d   1     -11.044  -9.584  -2.093  0.00  0.00     0.070 A 
ATOM     28  C   UNL d   1     -11.967 -10.352  -2.776  0.00  0.00     0.036 A 
ATOM     29  C   UNL d   1     -12.734  -9.467  -3.566  0.00  0.00     0.027 A 
ATOM     30  C   UNL d   1     -12.250  -8.207  -3.303  0.00  0.00     0.142 A 
ATOM     31  O   UNL d   1     -11.223  -8.263  -2.407  0.00  0.00    -0.325 OA
ENDBRANCH  26  27
ENDBRANCH  24  26
ENDBRANCH   4  22
TORSDOF 7
