@<TRIPOS>MOLECULE
*****
 73 77 0 0 0
SMALL
GASTEIGER

@<TRIPOS>ATOM
      1 C           8.7174   -1.8791    2.2355 C.3     1  UNL1       -0.0423
      2 C           8.4765   -0.4199    1.8998 C.2     1  UNL1       -0.0583
      3 C           9.4717    0.4767    1.7153 C.2     1  UNL1       -0.0544
      4 C          10.8886    0.1263    1.6663 C.ar    1  UNL1       -0.0250
      5 C          11.8435    0.8597    2.3701 C.ar    1  UNL1       -0.0546
      6 C          13.1840    0.4779    2.3018 C.ar    1  UNL1       -0.0612
      7 C          13.5518   -0.6803    1.6124 C.ar    1  UNL1       -0.0617
      8 C          12.6021   -1.4048    0.9035 C.ar    1  UNL1       -0.0612
      9 C          11.2912   -0.9589    0.8772 C.ar    1  UNL1       -0.0546
     10 C           7.0161   -0.0568    1.7919 C.3     1  UNL1        0.0177
     11 N           6.8274    1.3478    1.4073 N.3     1  UNL1       -0.3048
     12 C           5.4514    1.8148    1.4738 C.3     1  UNL1        0.0539
     13 C           5.0200    1.7164    2.9089 C.3     1  UNL1        0.0194
     14 C           4.1215    2.8737    3.2174 C.3     1  UNL1        0.0587
     15 C           4.2805    2.9219    4.7684 C.2     1  UNL1        0.2614
     16 O           5.2401    3.4433    5.2918 O.2     1  UNL1       -0.2696
     17 N           3.2927    2.2909    5.5155 N.am    1  UNL1       -0.3104
     18 C           3.1878    2.5935    6.9357 C.3     1  UNL1        0.0158
     19 C           2.5067    1.5357    7.7796 C.3     1  UNL1       -0.0119
     20 C           2.5862    1.9392    9.2236 C.ar    1  UNL1       -0.0422
     21 C           1.9526    3.0044    9.8664 C.ar    1  UNL1       -0.0548
     22 C           2.1584    3.1631   11.2566 C.ar    1  UNL1       -0.0159
     23 C           3.1179    2.3523   11.8877 C.ar    1  UNL1        0.1662
     24 C           4.0696    1.7768   11.1063 C.ar    1  UNL1        0.1665
     25 C           3.5897    1.2844    9.9173 C.ar    1  UNL1       -0.0129
     26 O           4.9410    1.0003   11.8253 O.3     1  UNL1       -0.4526
     27 C           3.9078    0.3164   12.5193 C.3     1  UNL1        0.2332
     28 O           2.8117    1.2712   12.7997 O.3     1  UNL1       -0.4526
     29 N           4.6813    4.0260    2.2942 N.4     1  UNL1        0.2483
     30 C           5.6012    5.0396    2.9493 C.3     1  UNL1       -0.0051
     31 C           4.9388    6.0681    3.8695 C.ar    1  UNL1       -0.0015
     32 C           5.4842    7.3498    4.0023 C.ar    1  UNL1       -0.0535
     33 C           5.2093    8.1306    5.1363 C.ar    1  UNL1       -0.0599
     34 C           4.4303    7.6325    6.1687 C.ar    1  UNL1       -0.0434
     35 C           3.7963    6.4298    5.9960 C.ar    1  UNL1        0.0414
     36 CL          2.8952    5.8355    7.3252 Cl      1  UNL1       -0.0835
     37 C           3.9283    5.7427    4.7892 C.ar    1  UNL1       -0.0352
     38 C           5.3356    3.3065    1.1014 C.3     1  UNL1       -0.0148
     39 H           9.7691   -2.1324    2.3854 H       1  UNL1        0.0275
     40 H           8.3418   -2.5184    1.4303 H       1  UNL1        0.0275
     41 H           8.2315   -2.1491    3.1761 H       1  UNL1        0.0275
     42 H           9.2698    1.5305    1.5413 H       1  UNL1        0.0623
     43 H          11.5585    1.7086    2.9873 H       1  UNL1        0.0623
     44 H          13.9455    1.0714    2.7997 H       1  UNL1        0.0618
     45 H          14.5824   -1.0211    1.6256 H       1  UNL1        0.0618
     46 H          12.8663   -2.3154    0.3753 H       1  UNL1        0.0618
     47 H          10.5598   -1.5138    0.2941 H       1  UNL1        0.0623
     48 H           6.5558   -0.2816    2.7621 H       1  UNL1        0.0470
     49 H           6.5300   -0.6916    1.0421 H       1  UNL1        0.0470
     50 H           7.2446    1.4856    0.4876 H       1  UNL1        0.1227
     51 H           4.8017    1.2157    0.8255 H       1  UNL1        0.0515
     52 H           5.9039    1.7924    3.5609 H       1  UNL1        0.0342
     53 H           4.5334    0.7666    3.1503 H       1  UNL1        0.0342
     54 H           3.0829    2.7357    2.8947 H       1  UNL1        0.0950
     55 H           2.8421    1.4490    5.1880 H       1  UNL1        0.1489
     56 H           2.5328    3.4544    6.9833 H       1  UNL1        0.0465
     57 H           4.1686    2.8728    7.3461 H       1  UNL1        0.0465
     58 H           3.0605    0.5971    7.6410 H       1  UNL1        0.0328
     59 H           1.4804    1.3439    7.4637 H       1  UNL1        0.0328
     60 H           1.3640    3.7343    9.3103 H       1  UNL1        0.0621
     61 H           1.9159    4.1523   11.6658 H       1  UNL1        0.0655
     62 H           3.8969    0.2916    9.6071 H       1  UNL1        0.0658
     63 H           4.3155   -0.1823   13.4032 H       1  UNL1        0.1166
     64 H           3.5957   -0.5015   11.8377 H       1  UNL1        0.1166
     65 H           3.9184    4.6009    1.9151 H       1  UNL1        0.2045
     66 H           6.1017    5.5792    2.1305 H       1  UNL1        0.0867
     67 H           6.3912    4.4706    3.4560 H       1  UNL1        0.0867
     68 H           6.1358    7.7674    3.2382 H       1  UNL1        0.0622
     69 H           5.6379    9.1197    5.2542 H       1  UNL1        0.0618
     70 H           4.2668    8.1855    7.0882 H       1  UNL1        0.0632
     71 H           3.2688    4.9066    4.6316 H       1  UNL1        0.0637
     72 H           6.3010    3.7700    0.8584 H       1  UNL1        0.0830
     73 H           4.6812    3.4283    0.2275 H       1  UNL1        0.0830
@<TRIPOS>UNITY_ATOM_ATTR
29 1
charge 1
@<TRIPOS>BOND
     1     1     2    1
     2     2     3    2
     3     3     4    1
     4     4     5   ar
     5     5     6   ar
     6     6     7   ar
     7     7     8   ar
     8     8     9   ar
     9     4     9   ar
    10     2    10    1
    11    10    11    1
    12    12    13    1
    13    13    14    1
    14    14    15    1
    15    15    16    2
    16    15    17   am
    17    17    18    1
    18    18    19    1
    19    19    20    1
    20    20    21   ar
    21    21    22   ar
    22    22    23   ar
    23    23    24   ar
    24    24    25   ar
    25    20    25   ar
    26    24    26    1
    27    26    27    1
    28    27    28    1
    29    23    28    1
    30    14    29    1
    31    29    30    1
    32    30    31    1
    33    31    32   ar
    34    32    33   ar
    35    33    34   ar
    36    34    35   ar
    37    35    36    1
    38    35    37   ar
    39    31    37   ar
    40    29    38    1
    41    12    38    1
    42    12    11    1
    43     1    39    1
    44     1    40    1
    45     1    41    1
    46     3    42    1
    47     5    43    1
    48     6    44    1
    49     7    45    1
    50     8    46    1
    51     9    47    1
    52    10    48    1
    53    10    49    1
    54    11    50    1
    55    12    51    1
    56    13    52    1
    57    13    53    1
    58    14    54    1
    59    17    55    1
    60    18    56    1
    61    18    57    1
    62    19    58    1
    63    19    59    1
    64    21    60    1
    65    22    61    1
    66    25    62    1
    67    27    63    1
    68    27    64    1
    69    29    65    1
    70    30    66    1
    71    30    67    1
    72    32    68    1
    73    33    69    1
    74    34    70    1
    75    37    71    1
    76    38    72    1
    77    38    73    1
