@<TRIPOS>MOLECULE
*****
 53 56 0 0 0
SMALL
GASTEIGER

@<TRIPOS>ATOM
      1 C          -2.3735   -1.2680    0.0137 C.3     1  UNL1       -0.0064
      2 C          -1.1936   -0.3423   -0.0110 C.ar    1  UNL1        0.1072
      3 N          -1.3505    0.9387   -0.0801 N.ar    1  UNL1       -0.2340
      4 C          -0.2129    1.7137   -0.0818 C.ar    1  UNL1        0.0781
      5 C          -0.3820    3.1812   -0.0403 C.ar    1  UNL1        0.0007
      6 C           0.1731    4.0595   -0.9819 C.ar    1  UNL1       -0.0508
      7 C           0.0435    5.4659   -0.8385 C.ar    1  UNL1       -0.0398
      8 C          -0.7240    6.0177    0.2020 C.ar    1  UNL1        0.0348
      9 N          -0.9908    7.4362    0.2701 N.am    1  UNL1       -0.2693
     10 C          -1.7760    8.0363    1.2473 C.2     1  UNL1        0.3065
     11 O          -2.2946    7.4233    2.1805 O.2     1  UNL1       -0.2523
     12 N          -1.9155    9.4240    1.2289 N.am    1  UNL1       -0.2824
     13 C          -2.5296    9.9910    2.4563 C.3     1  UNL1        0.0319
     14 C          -2.1247   11.4588    2.6991 C.3     1  UNL1        0.0281
     15 N          -2.4682   12.2406    1.5047 N.pl3   1  UNL1       -0.3257
     16 C          -3.2031   13.4010    1.5781 C.ar    1  UNL1        0.0486
     17 C          -4.3894   13.5636    0.8574 C.ar    1  UNL1       -0.0311
     18 C          -5.1637   14.7311    0.9747 C.ar    1  UNL1        0.0382
     19 C          -4.7268   15.7560    1.8151 C.ar    1  UNL1        0.3674
     20 N          -5.5860   16.9748    1.9142 N.pl3   1  UNL1        0.1005
     21 O          -5.1945   17.8940    2.6490 O.2     1  UNL1        0.0431
     22 O          -6.6424   17.0045    1.2600 O.co2   1  UNL1       -0.5747
     23 N          -3.5668   15.6409    2.5208 N.ar    1  UNL1       -0.1885
     24 C          -2.8586   14.4843    2.3894 C.ar    1  UNL1        0.0553
     25 C          -1.8683   11.7343    0.2564 C.3     1  UNL1        0.0281
     26 C          -2.2268   10.2368    0.0371 C.3     1  UNL1        0.0319
     27 C          -1.2456    5.1136    1.1363 C.ar    1  UNL1       -0.0398
     28 C          -1.0934    3.7293    1.0186 C.ar    1  UNL1       -0.0508
     29 C           1.0310    1.2192   -0.0047 C.ar    1  UNL1        0.0288
     30 C           1.1851   -0.2383    0.0130 C.ar    1  UNL1        0.2520
     31 O           2.2948   -0.7692   -0.0057 O.2     1  UNL1       -0.2678
     32 N           0.0282   -0.9506    0.0439 N.ar    1  UNL1       -0.3111
     33 H          -3.3075   -0.7012   -0.0221 H       1  UNL1        0.0307
     34 H          -2.3513   -1.8661    0.9296 H       1  UNL1        0.0307
     35 H          -2.3266   -1.9405   -0.8477 H       1  UNL1        0.0307
     36 H           0.6944    3.6491   -1.8462 H       1  UNL1        0.0625
     37 H           0.5572    6.0938   -1.5621 H       1  UNL1        0.0636
     38 H          -0.5551    8.0180   -0.4295 H       1  UNL1        0.1564
     39 H          -2.2570    9.3967    3.3348 H       1  UNL1        0.0480
     40 H          -3.6199    9.9194    2.3332 H       1  UNL1        0.0480
     41 H          -1.0416   11.5089    2.8672 H       1  UNL1        0.0479
     42 H          -2.6222   11.8315    3.6020 H       1  UNL1        0.0479
     43 H          -4.7545   12.7568    0.2266 H       1  UNL1        0.0639
     44 H          -6.0949   14.8093    0.4190 H       1  UNL1        0.0703
     45 H          -1.9397   14.4674    2.9703 H       1  UNL1        0.0851
     46 H          -0.7776   11.8111    0.3590 H       1  UNL1        0.0479
     47 H          -2.1588   12.3388   -0.6083 H       1  UNL1        0.0479
     48 H          -1.7429    9.8336   -0.8548 H       1  UNL1        0.0480
     49 H          -3.3133   10.1625   -0.1167 H       1  UNL1        0.0480
     50 H          -1.7973    5.4312    2.0099 H       1  UNL1        0.0636
     51 H          -1.5490    3.0881    1.7705 H       1  UNL1        0.0625
     52 H           1.9248    1.8225    0.0645 H       1  UNL1        0.0693
     53 H           0.1164   -1.9560    0.0574 H       1  UNL1        0.1700
@<TRIPOS>UNITY_ATOM_ATTR
20 1
charge 1
22 1
charge -1
@<TRIPOS>BOND
     1     1     2    1
     2     2     3   ar
     3     3     4   ar
     4     4     5    1
     5     5     6   ar
     6     6     7   ar
     7     7     8   ar
     8     8     9    1
     9     9    10   am
    10    10    11    2
    11    10    12   am
    12    12    13    1
    13    13    14    1
    14    14    15    1
    15    15    16    1
    16    16    17   ar
    17    17    18   ar
    18    18    19   ar
    19    19    20    1
    20    20    21    2
    21    20    22    1
    22    19    23   ar
    23    23    24   ar
    24    16    24   ar
    25    15    25    1
    26    25    26    1
    27    12    26    1
    28     8    27   ar
    29    27    28   ar
    30     5    28   ar
    31     4    29   ar
    32    29    30   ar
    33    30    31    2
    34    30    32   ar
    35     2    32   ar
    36     1    33    1
    37     1    34    1
    38     1    35    1
    39     6    36    1
    40     7    37    1
    41     9    38    1
    42    13    39    1
    43    13    40    1
    44    14    41    1
    45    14    42    1
    46    17    43    1
    47    18    44    1
    48    24    45    1
    49    25    46    1
    50    25    47    1
    51    26    48    1
    52    26    49    1
    53    27    50    1
    54    28    51    1
    55    29    52    1
    56    32    53    1
