@<TRIPOS>MOLECULE
*****
 48 52 0 0 0
SMALL
GASTEIGER

@<TRIPOS>ATOM
      1 O           1.1234    0.1800    0.0215 O.2     1  UNL1       -0.2746
      2 C           2.3491    0.1037   -0.1061 C.2     1  UNL1        0.2275
      3 C           3.0373   -0.8690   -1.0927 C.3     1  UNL1        0.0779
      4 S           1.8675   -1.6648   -2.2175 S.3     1  UNL1       -0.0763
      5 C           2.8000   -2.8270   -3.1233 C.ar    1  UNL1        0.1977
      6 N           3.6877   -2.5252   -4.0488 N.ar    1  UNL1       -0.1203
      7 N           4.0028   -3.6830   -4.7390 N.ar    1  UNL1       -0.1095
      8 C           3.3059   -4.6593   -4.2104 C.ar    1  UNL1        0.2372
      9 N           3.2785   -5.9873   -4.5678 N.ar    1  UNL1       -0.2911
     10 C           2.4980   -6.8890   -3.8953 C.ar    1  UNL1        0.2562
     11 O           2.4733   -8.0817   -4.2040 O.2     1  UNL1       -0.2675
     12 C           1.6711   -6.3695   -2.7549 C.ar    1  UNL1        0.0368
     13 C           1.7074   -5.0531   -2.4346 C.ar    1  UNL1        0.0373
     14 N           2.5299   -4.1887   -3.1662 N.ar    1  UNL1       -0.2598
     15 C           0.8808   -4.5094   -1.3025 C.3     1  UNL1       -0.0113
     16 C          -0.2154   -5.4553   -0.8460 C.3     1  UNL1       -0.0474
     17 C           0.3666   -6.8424   -0.6554 C.3     1  UNL1       -0.0485
     18 C           0.8427   -7.3813   -2.0051 C.3     1  UNL1       -0.0209
     19 N           3.1291    0.8503    0.7661 N.am    1  UNL1       -0.2847
     20 C           4.5337    0.9297    0.8237 C.ar    1  UNL1        0.0371
     21 C           5.2824    1.0063   -0.3494 C.ar    1  UNL1       -0.0368
     22 C           6.6722    0.9868   -0.3244 C.ar    1  UNL1       -0.0145
     23 C           7.3382    0.9618    0.8906 C.ar    1  UNL1        0.1622
     24 C           6.6098    0.9252    2.0852 C.ar    1  UNL1        0.1638
     25 C           5.2034    0.9530    2.0561 C.ar    1  UNL1        0.0049
     26 O           7.2271    0.8454    3.3132 O.3     1  UNL1       -0.4849
     27 C           8.6173    0.4890    3.1857 C.3     1  UNL1        0.1237
     28 C           9.2788    1.3168    2.0980 C.3     1  UNL1        0.1237
     29 O           8.7070    0.9890    0.8283 O.3     1  UNL1       -0.4849
     30 H           3.6114   -1.5999   -0.5122 H       1  UNL1        0.0475
     31 H           3.6821   -0.3216   -1.7662 H       1  UNL1        0.0475
     32 H           3.8425   -6.3145   -5.3406 H       1  UNL1        0.1719
     33 H           0.3537   -3.6054   -1.6016 H       1  UNL1        0.0328
     34 H           1.5508   -4.2751   -0.4645 H       1  UNL1        0.0328
     35 H          -1.0060   -5.4777   -1.6083 H       1  UNL1        0.0269
     36 H          -0.6633   -5.0743    0.0763 H       1  UNL1        0.0269
     37 H          -0.3803   -7.5091   -0.2168 H       1  UNL1        0.0269
     38 H           1.2143   -6.7910    0.0411 H       1  UNL1        0.0269
     39 H          -0.0294   -7.6398   -2.6195 H       1  UNL1        0.0315
     40 H           1.4089   -8.3027   -1.8321 H       1  UNL1        0.0315
     41 H           2.5909    1.3008    1.5015 H       1  UNL1        0.1548
     42 H           4.8054    1.1503   -1.3117 H       1  UNL1        0.0637
     43 H           7.2229    1.0158   -1.2592 H       1  UNL1        0.0656
     44 H           4.6553    0.9260    2.9948 H       1  UNL1        0.0674
     45 H           8.6880   -0.5841    2.9639 H       1  UNL1        0.0731
     46 H           9.1081    0.6678    4.1481 H       1  UNL1        0.0731
     47 H          10.3520    1.1046    2.0449 H       1  UNL1        0.0731
     48 H           9.1539    2.3923    2.2749 H       1  UNL1        0.0731
@<TRIPOS>BOND
     1     1     2    2
     2     2     3    1
     3     3     4    1
     4     4     5    1
     5     5     6   ar
     6     6     7   ar
     7     7     8   ar
     8     8     9   ar
     9     9    10   ar
    10    10    11    2
    11    10    12   ar
    12    12    13   ar
    13    13    14   ar
    14     5    14   ar
    15     8    14   ar
    16    13    15    1
    17    15    16    1
    18    16    17    1
    19    17    18    1
    20    12    18    1
    21     2    19   am
    22    19    20    1
    23    20    21   ar
    24    21    22   ar
    25    22    23   ar
    26    23    24   ar
    27    24    25   ar
    28    20    25   ar
    29    24    26    1
    30    26    27    1
    31    27    28    1
    32    28    29    1
    33    23    29    1
    34     3    30    1
    35     3    31    1
    36     9    32    1
    37    15    33    1
    38    15    34    1
    39    16    35    1
    40    16    36    1
    41    17    37    1
    42    17    38    1
    43    18    39    1
    44    18    40    1
    45    19    41    1
    46    21    42    1
    47    22    43    1
    48    25    44    1
    49    27    45    1
    50    27    46    1
    51    28    47    1
    52    28    48    1
