REMARK  3 active torsions:
REMARK  status: ('A' for Active; 'I' for Inactive)
REMARK       I    between atoms: C_2  and  N_4 
REMARK    1  A    between atoms: N_4  and  C_5 
REMARK    2  A    between atoms: C_8  and  C_9 
REMARK       I    between atoms: C_9  and  N_11 
REMARK    3  A    between atoms: N_11  and  C_12 
ROOT
ATOM      1  C   UNL d   1       4.673  -0.650   1.139  0.00  0.00     0.034 A 
ATOM      2  C   UNL d   1       5.381  -1.749   1.623  0.00  0.00     0.030 A 
ATOM      3  C   UNL d   1       6.777  -1.668   1.762  0.00  0.00     0.019 A 
ATOM      4  C   UNL d   1       7.486  -0.501   1.401  0.00  0.00     0.032 A 
ATOM      5  C   UNL d   1       6.768   0.589   0.919  0.00  0.00     0.019 A 
ATOM      6  C   UNL d   1       5.378   0.509   0.793  0.00  0.00     0.030 A 
ENDROOT
BRANCH   4   7
ATOM      7  C   UNL d   1       8.973  -0.499   1.528  0.00  0.00     0.257 C 
ATOM      8  O   UNL d   1       9.477  -1.431   2.161  0.00  0.00    -0.267 OA
ATOM      9  N   UNL d   1       9.700   0.534   0.949  0.00  0.00    -0.307 N 
ATOM     10  H   UNL d   1       9.294   1.454   0.869  0.00  0.00     0.170 HD
BRANCH   9  11
ATOM     11  C   UNL d   1      11.109   0.534   0.914  0.00  0.00     0.136 A 
ATOM     12  N   UNL d   1      11.718   1.678   1.309  0.00  0.00    -0.243 NA
ATOM     13  C   UNL d   1      13.076   1.681   1.333  0.00  0.00     0.119 A 
ATOM     14  C   UNL d   1      13.863   0.626   0.904  0.00  0.00     0.020 A 
ATOM     15  C   UNL d   1      13.219  -0.499   0.412  0.00  0.00     0.012 A 
ATOM     16  C   UNL d   1      11.820  -0.560   0.404  0.00  0.00    -0.016 A 
ATOM     17  C   UNL d   1      11.146  -1.734  -0.242  0.00  0.00     0.052 C 
ENDBRANCH   9  11
ENDBRANCH   4   7
BRANCH   1  18
ATOM     18  N   UNL d   1       3.262  -0.678   1.047  0.00  0.00    -0.328 N 
ATOM     19  C   UNL d   1       2.575  -0.061   0.011  0.00  0.00     0.218 C 
ATOM     20  C   UNL d   1       1.073  -0.118   0.110  0.00  0.00     0.117 C 
ATOM     21  O   UNL d   1       3.105   0.479  -0.958  0.00  0.00    -0.274 OA
ATOM     22  H   UNL d   1       2.758  -1.275   1.692  0.00  0.00     0.169 HD
ENDBRANCH   1  18
TORSDOF 3
