@<TRIPOS>MOLECULE
*****
 56 59 0 0 0
SMALL
GASTEIGER

@<TRIPOS>ATOM
      1 C           0.9997    0.4478   -0.2022 C.3     1  UNL1       -0.0259
      2 C           2.4508    0.0779   -0.1043 C.2     1  UNL1        0.0181
      3 C           2.9943   -1.1665   -0.0018 C.2     1  UNL1        0.0601
      4 C           2.2134   -2.4816   -0.1260 C.2     1  UNL1        0.2481
      5 O           2.7671   -3.4409   -0.6231 O.2     1  UNL1       -0.2701
      6 N           0.8809   -2.5667    0.2632 N.am    1  UNL1       -0.2814
      7 C           0.1528   -3.7667    0.2890 C.ar    1  UNL1        0.0366
      8 C          -0.9910   -3.8703   -0.5179 C.ar    1  UNL1       -0.0402
      9 C          -1.8010   -4.9973   -0.4268 C.ar    1  UNL1       -0.0600
     10 C          -1.4875   -5.9900    0.4988 C.ar    1  UNL1       -0.0614
     11 C          -0.3842   -5.8486    1.3469 C.ar    1  UNL1       -0.0571
     12 C           0.4398   -4.7256    1.2624 C.ar    1  UNL1       -0.0292
     13 C           1.5330   -4.5007    2.2633 C.3     1  UNL1       -0.0380
     14 C           4.5904   -1.3080    0.0661 C.3     1  UNL1        0.1123
     15 C           5.1247   -2.1970    1.2212 C.ar    1  UNL1       -0.0182
     16 C           4.9101   -3.5857    1.2141 C.ar    1  UNL1       -0.0528
     17 C           5.2009   -4.3964    2.3144 C.ar    1  UNL1       -0.0198
     18 C           5.9058   -3.8639    3.3743 C.ar    1  UNL1        0.1169
     19 O           6.2628   -4.6233    4.4444 O.3     1  UNL1       -0.5068
     20 C           6.2894   -2.5360    3.3518 C.ar    1  UNL1       -0.0198
     21 C           5.8672   -1.7043    2.3094 C.ar    1  UNL1       -0.0528
     22 N           5.2481    0.0340    0.0803 N.ar    1  UNL1       -0.2205
     23 N           6.5850    0.2670    0.1932 N.ar    1  UNL1       -0.1526
     24 C           6.6165    1.6005    0.3704 C.ar    1  UNL1        0.1530
     25 C           7.8549    2.3763    0.7102 C.3     1  UNL1        0.0112
     26 C           9.0833    1.4997    0.9615 C.3     1  UNL1       -0.0228
     27 C          10.3391    2.3121    1.2446 C.3     1  UNL1        0.0446
     28 O          11.4481    1.4404    1.4348 O.3     1  UNL1       -0.3950
     29 N           5.3996    2.2212    0.2198 N.ar    1  UNL1       -0.1978
     30 C           4.5760    1.2200    0.0346 C.ar    1  UNL1        0.2187
     31 N           3.2516    1.2128   -0.1437 N.pl3   1  UNL1       -0.2872
     32 H           0.3065   -0.3545   -0.2851 H       1  UNL1        0.0290
     33 H           0.7919    1.0085   -1.1140 H       1  UNL1        0.0290
     34 H           0.7000    1.0086    0.6887 H       1  UNL1        0.0290
     35 H           0.2416   -1.8148    0.1979 H       1  UNL1        0.1551
     36 H          -1.2422   -3.0963   -1.2395 H       1  UNL1        0.0636
     37 H          -2.6701   -5.1010   -1.0722 H       1  UNL1        0.0618
     38 H          -2.1129   -6.8744    0.5753 H       1  UNL1        0.0618
     39 H          -0.1811   -6.6110    2.0933 H       1  UNL1        0.0621
     40 H           1.6054   -5.3138    2.9878 H       1  UNL1        0.0278
     41 H           1.3689   -3.5665    2.8148 H       1  UNL1        0.0278
     42 H           2.4862   -4.4448    1.7471 H       1  UNL1        0.0278
     43 H           4.9373   -1.7351   -0.8867 H       1  UNL1        0.0648
     44 H           4.4886   -4.0922    0.3535 H       1  UNL1        0.0622
     45 H           4.8628   -5.4282    2.3055 H       1  UNL1        0.0654
     46 H           5.9477   -5.5290    4.2908 H       1  UNL1        0.2921
     47 H           6.9090   -2.1334    4.1462 H       1  UNL1        0.0654
     48 H           6.1812   -0.6665    2.3690 H       1  UNL1        0.0622
     49 H           7.6652    2.9901    1.6029 H       1  UNL1        0.0345
     50 H           8.0616    3.0772   -0.1076 H       1  UNL1        0.0345
     51 H           9.2684    0.8562    0.0929 H       1  UNL1        0.0291
     52 H           8.8973    0.8198    1.8032 H       1  UNL1        0.0291
     53 H          10.2301    2.9265    2.1436 H       1  UNL1        0.0557
     54 H          10.5768    2.9707    0.4037 H       1  UNL1        0.0557
     55 H          11.2326    0.8408    2.1702 H       1  UNL1        0.2094
     56 H           2.7928    2.1071   -0.2985 H       1  UNL1        0.1547
@<TRIPOS>BOND
     1     1     2    1
     2     2     3    2
     3     3     4    1
     4     4     5    2
     5     4     6   am
     6     6     7    1
     7     7     8   ar
     8     8     9   ar
     9     9    10   ar
    10    10    11   ar
    11    11    12   ar
    12     7    12   ar
    13    12    13    1
    14     3    14    1
    15    15    16   ar
    16    16    17   ar
    17    17    18   ar
    18    18    19    1
    19    18    20   ar
    20    20    21   ar
    21    15    21   ar
    22    14    22    1
    23    22    23   ar
    24    23    24   ar
    25    24    25    1
    26    25    26    1
    27    26    27    1
    28    27    28    1
    29    24    29   ar
    30    29    30   ar
    31    22    30   ar
    32    30    31    1
    33     2    31    1
    34    14    15    1
    35     1    32    1
    36     1    33    1
    37     1    34    1
    38     6    35    1
    39     8    36    1
    40     9    37    1
    41    10    38    1
    42    11    39    1
    43    13    40    1
    44    13    41    1
    45    13    42    1
    46    14    43    1
    47    16    44    1
    48    17    45    1
    49    19    46    1
    50    20    47    1
    51    21    48    1
    52    25    49    1
    53    25    50    1
    54    26    51    1
    55    26    52    1
    56    27    53    1
    57    27    54    1
    58    28    55    1
    59    31    56    1
