@<TRIPOS>MOLECULE
*****
 33 34 0 0 0
SMALL
GASTEIGER

@<TRIPOS>ATOM
      1 C           1.1523   -0.0132    0.0933 C.3     1  UNL1        0.0125
      2 C           2.6544    0.0163   -0.0303 C.2     1  UNL1        0.2141
      3 O           3.1968   -0.1782   -1.1149 O.2     1  UNL1       -0.2758
      4 N           3.3261    0.2354    1.1607 N.am    1  UNL1       -0.2857
      5 C           4.7363    0.2286    1.2284 C.ar    1  UNL1        0.0349
      6 C           5.5498    0.8650    0.2975 C.ar    1  UNL1       -0.0386
      7 C           6.9581    0.8152    0.4143 C.ar    1  UNL1       -0.0373
      8 C           7.5976    0.0831    1.4468 C.ar    1  UNL1        0.0522
      9 N           9.0424    0.0979    1.4398 N.am    1  UNL1       -0.2803
     10 C           9.8852   -0.5495    2.3274 C.2     1  UNL1        0.2483
     11 O           9.5918   -1.2173    3.3119 O.2     1  UNL1       -0.2699
     12 C          11.3432   -0.4888    2.1614 C.ar    1  UNL1        0.0371
     13 C          12.0242    0.7198    2.0521 C.ar    1  UNL1       -0.0482
     14 C          13.4222    0.7136    2.1142 C.ar    1  UNL1       -0.0427
     15 C          14.1218   -0.4859    2.3003 C.ar    1  UNL1        0.0410
     16 CL         15.8409   -0.4783    2.3301 Cl      1  UNL1       -0.0835
     17 C          13.4415   -1.6871    2.4662 C.ar    1  UNL1       -0.0427
     18 C          12.0525   -1.6850    2.4017 C.ar    1  UNL1       -0.0482
     19 C           6.7352   -0.5775    2.3588 C.ar    1  UNL1        0.0639
     20 CL          7.1173   -1.6519    3.6564 Cl      1  UNL1       -0.0816
     21 C           5.3371   -0.4579    2.2640 C.ar    1  UNL1       -0.0203
     22 H           0.7294   -0.1821   -0.9033 H       1  UNL1        0.0323
     23 H           0.7816    0.9454    0.4635 H       1  UNL1        0.0323
     24 H           0.8223   -0.8267    0.7450 H       1  UNL1        0.0323
     25 H           2.8206    0.0576    2.0223 H       1  UNL1        0.1548
     26 H           5.0903    1.4288   -0.5129 H       1  UNL1        0.0637
     27 H           7.5242    1.3622   -0.3401 H       1  UNL1        0.0637
     28 H           9.4821    0.6177    0.6852 H       1  UNL1        0.1552
     29 H          11.4848    1.6603    1.9991 H       1  UNL1        0.0625
     30 H          13.9660    1.6518    2.0459 H       1  UNL1        0.0632
     31 H          13.9708   -2.6151    2.6678 H       1  UNL1        0.0632
     32 H          11.5080   -2.6099    2.5992 H       1  UNL1        0.0625
     33 H           4.7263   -0.9981    2.9837 H       1  UNL1        0.0651
@<TRIPOS>BOND
     1     1     2    1
     2     2     3    2
     3     2     4   am
     4     4     5    1
     5     5     6   ar
     6     6     7   ar
     7     7     8   ar
     8     8     9    1
     9     9    10   am
    10    10    11    2
    11    10    12    1
    12    12    13   ar
    13    13    14   ar
    14    14    15   ar
    15    15    16    1
    16    15    17   ar
    17    17    18   ar
    18    12    18   ar
    19     8    19   ar
    20    19    20    1
    21    19    21   ar
    22     5    21   ar
    23     1    22    1
    24     1    23    1
    25     1    24    1
    26     4    25    1
    27     6    26    1
    28     7    27    1
    29     9    28    1
    30    13    29    1
    31    14    30    1
    32    17    31    1
    33    18    32    1
    34    21    33    1
