@<TRIPOS>MOLECULE
*****
 65 69 0 0 0
SMALL
GASTEIGER

@<TRIPOS>ATOM
      1 C           0.8646    0.0322    0.0224 C.3     1  UNL1       -0.0245
      2 C           2.3731    0.1216    0.0270 C.3     1  UNL1       -0.0347
      3 N           2.8773    1.5538    0.2047 N.4     1  UNL1        0.2373
      4 C           2.2326    2.6604   -0.7106 C.3     1  UNL1       -0.0157
      5 C           2.9137    4.0322   -0.4637 C.3     1  UNL1        0.0552
      6 N           2.8751    4.3665    0.9493 N.pl3   1  UNL1       -0.2895
      7 C           2.1360    5.4097    1.4587 C.ar    1  UNL1        0.2183
      8 N           0.8316    5.5341    1.1661 N.ar    1  UNL1       -0.2221
      9 C           0.1700    6.6103    1.7110 C.ar    1  UNL1        0.0421
     10 C           0.7582    7.6115    2.4642 C.ar    1  UNL1        0.0398
     11 C           0.0152    8.8003    2.9473 C.ar    1  UNL1        0.0828
     12 C           0.4006   10.0121    2.5373 C.ar    1  UNL1        0.0290
     13 C          -0.1883   11.1772    3.1976 C.ar    1  UNL1        0.2532
     14 O           0.1926   12.3213    2.9231 O.2     1  UNL1       -0.2678
     15 N          -1.1242   10.9096    4.1533 N.ar    1  UNL1       -0.2948
     16 C          -1.4694    9.6135    4.5083 C.ar    1  UNL1        0.2027
     17 N          -2.3624    9.4702    5.5521 N.pl3   1  UNL1       -0.2540
     18 C          -2.9756    8.2200    5.7794 C.ar    1  UNL1        0.2224
     19 N          -4.2764    8.2408    5.4991 N.ar    1  UNL1       -0.2188
     20 C          -4.9630    7.1714    5.9016 C.ar    1  UNL1        0.0510
     21 C          -6.3398    7.1001    5.3138 C.3     1  UNL1       -0.0216
     22 C          -4.4767    6.0823    6.7017 C.ar    1  UNL1        0.0218
     23 C          -5.1189    4.9694    7.4645 C.ar    1  UNL1       -0.0479
     24 C          -5.5695    3.9779    6.6592 C.ar    1  UNL1       -0.0497
     25 C          -6.8605    4.2831    5.9464 C.3     1  UNL1       -0.0397
     26 C          -4.3453    3.4837    6.2315 C.ar    1  UNL1       -0.0568
     27 C          -3.0684    4.4235    6.3542 C.ar    1  UNL1       -0.0353
     28 C          -3.1559    5.8879    6.4093 C.ar    1  UNL1        0.0763
     29 N          -2.3689    7.0540    6.1823 N.ar    1  UNL1       -0.2142
     30 N          -0.9584    8.6003    3.8947 N.ar    1  UNL1       -0.2154
     31 C           2.1052    7.3834    2.7125 C.ar    1  UNL1        0.0524
     32 C           2.9472    8.3424    3.5109 C.3     1  UNL1       -0.0216
     33 N           2.7779    6.2870    2.2426 N.ar    1  UNL1       -0.2189
     34 C           3.5563    3.4299    1.8295 C.3     1  UNL1        0.0552
     35 C           2.8875    2.0305    1.6974 C.3     1  UNL1       -0.0157
     36 H           0.5382   -1.0106   -0.0708 H       1  UNL1        0.0281
     37 H           0.4483    0.5765   -0.8289 H       1  UNL1        0.0281
     38 H           0.4482    0.4342    0.9483 H       1  UNL1        0.0281
     39 H           2.7855   -0.2693   -0.9126 H       1  UNL1        0.0812
     40 H           2.7963   -0.4843    0.8397 H       1  UNL1        0.0812
     41 H           3.8612    1.4949   -0.0870 H       1  UNL1        0.2034
     42 H           1.1700    2.7211   -0.4603 H       1  UNL1        0.0830
     43 H           2.3644    2.3475   -1.7535 H       1  UNL1        0.0830
     44 H           2.5082    4.8275   -1.0973 H       1  UNL1        0.0517
     45 H           3.9731    3.9325   -0.7469 H       1  UNL1        0.0517
     46 H          -0.8981    6.6567    1.4962 H       1  UNL1        0.0838
     47 H           1.1999   10.1860    1.8274 H       1  UNL1        0.0693
     48 H          -1.4885   11.7170    4.6326 H       1  UNL1        0.1716
     49 H          -3.0700   10.1976    5.6111 H       1  UNL1        0.1579
     50 H          -6.8856    7.9238    4.8726 H       1  UNL1        0.0293
     51 H          -6.9355    6.8271    6.1843 H       1  UNL1        0.0293
     52 H          -6.2778    6.3928    4.4603 H       1  UNL1        0.0293
     53 H          -4.4100    4.4106    8.1915 H       1  UNL1        0.0627
     54 H          -6.4065    5.1360    5.5624 H       1  UNL1        0.0278
     55 H          -7.6693    4.7573    6.5447 H       1  UNL1        0.0278
     56 H          -7.1988    4.0370    4.9319 H       1  UNL1        0.0278
     57 H          -4.3105    2.4211    6.5309 H       1  UNL1        0.0621
     58 H          -2.1756    4.0601    6.9005 H       1  UNL1        0.0639
     59 H           2.3901    9.1878    3.9206 H       1  UNL1        0.0293
     60 H           3.7372    8.7517    2.8731 H       1  UNL1        0.0293
     61 H           3.3942    7.8242    4.3621 H       1  UNL1        0.0293
     62 H           3.5793    3.7600    2.8733 H       1  UNL1        0.0517
     63 H           4.6011    3.3403    1.5011 H       1  UNL1        0.0517
     64 H           1.8450    2.0637    2.0276 H       1  UNL1        0.0830
     65 H           3.4401    1.2827    2.2786 H       1  UNL1        0.0830
@<TRIPOS>UNITY_ATOM_ATTR
3 1
charge 1
@<TRIPOS>BOND
     1     1     2    1
     2     2     3    1
     3     3     4    1
     4     4     5    1
     5     5     6    1
     6     6     7    1
     7     7     8   ar
     8     8     9   ar
     9     9    10   ar
    10    10    11    1
    11    11    12   ar
    12    12    13   ar
    13    13    14    2
    14    13    15   ar
    15    15    16   ar
    16    16    17    1
    17    17    18    1
    18    18    19   ar
    19    19    20   ar
    20    20    21    1
    21    20    22   ar
    22    22    23   ar
    23    23    24   ar
    24    24    25    1
    25    24    26   ar
    26    26    27   ar
    27    27    28   ar
    28    22    28   ar
    29    28    29   ar
    30    18    29   ar
    31    16    30   ar
    32    11    30   ar
    33    10    31   ar
    34    31    32    1
    35    31    33   ar
    36     7    33   ar
    37     6    34    1
    38    34    35    1
    39     3    35    1
    40     1    36    1
    41     1    37    1
    42     1    38    1
    43     2    39    1
    44     2    40    1
    45     3    41    1
    46     4    42    1
    47     4    43    1
    48     5    44    1
    49     5    45    1
    50     9    46    1
    51    12    47    1
    52    15    48    1
    53    17    49    1
    54    21    50    1
    55    21    51    1
    56    21    52    1
    57    23    53    1
    58    25    54    1
    59    25    55    1
    60    25    56    1
    61    26    57    1
    62    27    58    1
    63    32    59    1
    64    32    60    1
    65    32    61    1
    66    34    62    1
    67    34    63    1
    68    35    64    1
    69    35    65    1
