REMARK  7 active torsions:
REMARK  status: ('A' for Active; 'I' for Inactive)
REMARK    1  A    between atoms: C_5  and  N_6 
REMARK       I    between atoms: N_6  and  C_7 
REMARK    2  A    between atoms: C_7  and  C_9 
REMARK    3  A    between atoms: C_9  and  C_10 
REMARK    4  A    between atoms: C_10  and  C_11 
REMARK    5  A    between atoms: C_13  and  C_14 
REMARK    6  A    between atoms: C_14  and  S_15 
REMARK    7  A    between atoms: S_15  and  C_16 
ROOT
ATOM      1  C   UNL d   1      -8.132  -1.352  -0.205  0.00  0.00     0.173 A 
ATOM      2  N   UNL d   1      -9.306  -0.774  -0.246  0.00  0.00    -0.208 NA
ATOM      3  C   UNL d   1     -10.157  -1.835  -0.303  0.00  0.00     0.165 A 
ATOM      4  N   UNL d   1      -9.571  -3.036  -0.267  0.00  0.00    -0.110 NA
ATOM      5  O   UNL d   1      -8.203  -2.715  -0.209  0.00  0.00    -0.196 OA
ENDROOT
BRANCH   1   6
ATOM      6  C   UNL d   1      -6.824  -0.678  -0.149  0.00  0.00     0.098 C 
BRANCH   6   7
ATOM      7  C   UNL d   1      -5.600  -1.600  -0.149  0.00  0.00     0.111 C 
BRANCH   7   8
ATOM      8  C   UNL d   1      -4.372  -0.716  -0.086  0.00  0.00     0.222 C 
ATOM      9  N   UNL d   1      -3.142  -1.358  -0.065  0.00  0.00    -0.327 N 
ATOM     10  H   UNL d   1      -3.107  -2.371  -0.106  0.00  0.00     0.169 HD
ATOM     11  O   UNL d   1      -4.548   0.502  -0.055  0.00  0.00    -0.273 OA
BRANCH   9  12
ATOM     12  C   UNL d   1      -1.886  -0.678  -0.019  0.00  0.00     0.035 A 
ATOM     13  C   UNL d   1      -1.810   0.715   0.022  0.00  0.00     0.030 A 
ATOM     14  C   UNL d   1      -0.598   1.392   0.025  0.00  0.00     0.009 A 
ATOM     15  C   UNL d   1       0.603   0.693   0.002  0.00  0.00    -0.056 A 
ATOM     16  C   UNL d   1       1.880   1.484  -0.015  0.00  0.00     0.049 C 
ATOM     17  C   UNL d   1       0.570  -0.716  -0.002  0.00  0.00    -0.054 A 
ATOM     18  C   UNL d   1      -0.678  -1.393  -0.019  0.00  0.00     0.037 A 
ATOM     19  C   UNL d   1       1.863  -1.491   0.020  0.00  0.00     0.049 C 
ENDBRANCH   9  12
ENDBRANCH   7   8
ENDBRANCH   6   7
ENDBRANCH   1   6
BRANCH   3  20
ATOM     20  C   UNL d   1     -11.629  -1.648  -0.367  0.00  0.00     0.160 C 
BRANCH  20  21
ATOM     21  S   UNL d   1     -12.052   0.168  -0.394  0.00  0.00    -0.115 SA
BRANCH  21  22
ATOM     22  C   UNL d   1     -13.850   0.202  -0.398  0.00  0.00     0.247 A 
ATOM     23  N   UNL d   1     -14.548  -1.018   0.054  0.00  0.00    -0.359 N 
ATOM     24  C   UNL d   1     -15.249  -0.756   1.090  0.00  0.00     0.057 A 
ATOM     25  H   UNL d   1     -14.458  -1.956  -0.335  0.00  0.00     0.162 HD
ATOM     26  C   UNL d   1     -16.003  -1.662   1.933  0.00  0.00     0.031 A 
ATOM     27  C   UNL d   1     -15.186   0.706   1.377  0.00  0.00     0.057 A 
ATOM     28  C   UNL d   1     -16.645  -1.083   2.958  0.00  0.00     0.002 A 
ATOM     29  C   UNL d   1     -16.615   0.345   3.235  0.00  0.00     0.002 A 
ATOM     30  C   UNL d   1     -15.932   1.248   2.510  0.00  0.00     0.031 A 
ATOM     31  N   UNL d   1     -14.428   1.257   0.506  0.00  0.00    -0.359 N 
ATOM     32  H   UNL d   1     -14.205   2.256   0.476  0.00  0.00     0.162 HD
ENDBRANCH  21  22
ENDBRANCH  20  21
ENDBRANCH   3  20
TORSDOF 7
