REMARK  7 active torsions:
REMARK  status: ('A' for Active; 'I' for Inactive)
REMARK    1  A    between atoms: C_2  and  O_3 
REMARK    2  A    between atoms: O_3  and  C_4 
REMARK    3  A    between atoms: C_6  and  C_4 
REMARK    4  A    between atoms: C_6  and  O_20 
REMARK    5  A    between atoms: C_6  and  C_27 
REMARK    6  A    between atoms: C_6  and  N_7 
REMARK       I    between atoms: N_7  and  C_8 
REMARK       I    between atoms: C_8  and  N_10 
REMARK    7  A    between atoms: O_20  and  C_21 
ROOT
ATOM      1  C   UNL d   1       4.872   3.037  -0.579  0.00  0.00     0.333 C 
ENDROOT
BRANCH   1   2
ATOM      2  O   UNL d   1       4.640   3.882   0.581  0.00  0.00    -0.303 OA
BRANCH   2   3
ATOM      3  C   UNL d   1       3.411   4.115   1.121  0.00  0.00     0.072 C 
ATOM      4  C   UNL d   1       2.612   3.108   1.682  0.00  0.00     0.037 C 
ATOM      5  C   UNL d   1       1.288   3.384   1.935  0.00  0.00     0.003 C 
ATOM      6  C   UNL d   1       0.870   4.680   1.664  0.00  0.00     0.000 C 
ATOM      7  C   UNL d   1       1.677   5.757   1.430  0.00  0.00     0.003 C 
ATOM      8  C   UNL d   1       2.967   5.448   1.094  0.00  0.00     0.037 C 
ENDBRANCH   2   3
ENDBRANCH   1   2
BRANCH   1   9
ATOM      9  C   UNL d   1       6.423   2.912  -0.595  0.00  0.00     0.449 C 
ATOM     10  F   UNL d   1       6.911   2.454   0.587  0.00  0.00    -0.166 F 
ATOM     11  F   UNL d   1       6.898   2.085  -1.551  0.00  0.00    -0.166 F 
ATOM     12  F   UNL d   1       7.009   4.127  -0.797  0.00  0.00    -0.166 F 
ENDBRANCH   1   9
BRANCH   1  13
ATOM     13  N   UNL d   1       4.045   1.794  -0.528  0.00  0.00    -0.293 N 
ATOM     14  C   UNL d   1       2.705   2.020  -0.905  0.00  0.00     0.347 C 
ATOM     15  O   UNL d   1       2.394   3.103  -1.353  0.00  0.00    -0.245 OA
ATOM     16  N   UNL d   1       1.749   1.077  -0.631  0.00  0.00    -0.169 NA
ATOM     17  C   UNL d   1       0.541   1.572  -0.526  0.00  0.00     0.177 C 
ATOM     18  N   UNL d   1      -0.005   2.879  -0.583  0.00  0.00    -0.334 N 
ATOM     19  S   UNL d   1      -0.771   0.452  -0.072  0.00  0.00    -0.050 SA
ATOM     20  C   UNL d   1      -1.262   3.051   0.080  0.00  0.00     0.051 C 
ATOM     21  H   UNL d   1       0.678   3.630  -0.659  0.00  0.00     0.168 HD
ATOM     22  C   UNL d   1      -1.959   4.220   0.531  0.00  0.00     0.031 C 
ATOM     23  C   UNL d   1      -1.845   1.819   0.344  0.00  0.00     0.035 C 
ATOM     24  C   UNL d   1      -3.200   4.135   1.170  0.00  0.00     0.002 C 
ATOM     25  C   UNL d   1      -3.801   2.893   1.274  0.00  0.00     0.002 C 
ATOM     26  C   UNL d   1      -3.106   1.736   0.903  0.00  0.00     0.021 C 
ATOM     27  H   UNL d   1       4.456   0.887  -0.339  0.00  0.00     0.168 HD
ENDBRANCH   1  13
BRANCH   1  28
ATOM     28  C   UNL d   1       4.687   3.527  -2.059  0.00  0.00     0.325 C 
ATOM     29  O   UNL d   1       4.573   2.755  -3.016  0.00  0.00    -0.259 OA
BRANCH  28  30
ATOM     30  O   UNL d   1       4.557   4.877  -2.165  0.00  0.00    -0.318 OA
BRANCH  30  31
ATOM     31  C   UNL d   1       4.107   5.294  -3.465  0.00  0.00     0.174 C 
ATOM     32  C   UNL d   1       4.155   6.805  -3.508  0.00  0.00     0.034 C 
ENDBRANCH  30  31
ENDBRANCH  28  30
ENDBRANCH   1  28
TORSDOF 7
