@<TRIPOS>MOLECULE
*****
 40 43 0 0 0
SMALL
GASTEIGER

@<TRIPOS>ATOM
      1 O           1.1335    0.1255   -0.1107 O.2     1  UNL1       -0.2739
      2 C           2.3619    0.0777    0.0010 C.2     1  UNL1        0.2335
      3 C           3.0860   -0.8238    0.9843 C.3     1  UNL1        0.0541
      4 C           2.1977   -1.6807    1.8338 C.ar    1  UNL1        0.0075
      5 C           1.1509   -1.2191    2.6124 C.ar    1  UNL1        0.0968
      6 O           0.5446   -2.2282    3.2764 O.2     1  UNL1       -0.4626
      7 C           1.1828   -3.3745    2.9269 C.ar    1  UNL1        0.1357
      8 C           0.8303   -4.6382    3.3933 C.ar    1  UNL1       -0.0182
      9 C           1.5754   -5.7156    2.9119 C.ar    1  UNL1       -0.0505
     10 C           2.6376   -5.5329    2.0150 C.ar    1  UNL1       -0.0171
     11 C           3.3577   -6.6373    1.5312 C.ar    1  UNL1       -0.0540
     12 C           4.4156   -6.4756    0.6346 C.ar    1  UNL1       -0.0612
     13 C           4.7842   -5.2062    0.2194 C.ar    1  UNL1       -0.0611
     14 C           4.0895   -4.0972    0.6922 C.ar    1  UNL1       -0.0533
     15 C           2.9968   -4.2285    1.5770 C.ar    1  UNL1       -0.0069
     16 C           2.2269   -3.1107    2.0400 C.ar    1  UNL1        0.0315
     17 N           3.1382    0.9169   -0.7790 N.am    1  UNL1       -0.2362
     18 N           4.4775    0.6176   -1.1020 N.pl3   1  UNL1       -0.2645
     19 C           5.1354    1.6199   -1.8704 C.ar    1  UNL1        0.0444
     20 C           6.2752    1.2431   -2.5959 C.ar    1  UNL1       -0.0394
     21 C           6.9614    2.1604   -3.4000 C.ar    1  UNL1       -0.0600
     22 C           6.5000    3.4678   -3.5151 C.ar    1  UNL1       -0.0616
     23 C           5.3956    3.8736   -2.7702 C.ar    1  UNL1       -0.0600
     24 C           4.7313    2.9622   -1.9364 C.ar    1  UNL1       -0.0394
     25 H           3.7142   -0.2090    1.6387 H       1  UNL1        0.0409
     26 H           3.7464   -1.4324    0.3785 H       1  UNL1        0.0409
     27 H           0.7234   -0.2379    2.7707 H       1  UNL1        0.1032
     28 H           0.0060   -4.7753    4.0838 H       1  UNL1        0.0655
     29 H           1.3103   -6.7170    3.2473 H       1  UNL1        0.0625
     30 H           3.0933   -7.6447    1.8441 H       1  UNL1        0.0624
     31 H           4.9542   -7.3413    0.2612 H       1  UNL1        0.0618
     32 H           5.6080   -5.0659   -0.4751 H       1  UNL1        0.0618
     33 H           4.4384   -3.1404    0.3429 H       1  UNL1        0.0624
     34 H           2.6100    1.3567   -1.5307 H       1  UNL1        0.1727
     35 H           5.0666    0.3518   -0.3090 H       1  UNL1        0.1700
     36 H           6.6082    0.2085   -2.5806 H       1  UNL1        0.0636
     37 H           7.8452    1.8479   -3.9503 H       1  UNL1        0.0618
     38 H           6.9985    4.1662   -4.1837 H       1  UNL1        0.0618
     39 H           5.0492    4.9024   -2.8401 H       1  UNL1        0.0618
     40 H           3.8919    3.3259   -1.3501 H       1  UNL1        0.0636
@<TRIPOS>BOND
     1     1     2    2
     2     2     3    1
     3     3     4    1
     4     4     5   ar
     5     5     6   ar
     6     6     7   ar
     7     7     8   ar
     8     8     9   ar
     9     9    10   ar
    10    10    11   ar
    11    11    12   ar
    12    12    13   ar
    13    13    14   ar
    14    14    15   ar
    15    10    15   ar
    16    15    16   ar
    17     4    16   ar
    18     7    16   ar
    19     2    17   am
    20    17    18    1
    21    18    19    1
    22    19    20   ar
    23    20    21   ar
    24    21    22   ar
    25    22    23   ar
    26    23    24   ar
    27    19    24   ar
    28     3    25    1
    29     3    26    1
    30     5    27    1
    31     8    28    1
    32     9    29    1
    33    11    30    1
    34    12    31    1
    35    13    32    1
    36    14    33    1
    37    17    34    1
    38    18    35    1
    39    20    36    1
    40    21    37    1
    41    22    38    1
    42    23    39    1
    43    24    40    1
