REMARK  3 active torsions:
REMARK  status: ('A' for Active; 'I' for Inactive)
REMARK       I    between atoms: C_2  and  N_3 
REMARK    1  A    between atoms: C_2  and  C_14 
REMARK    2  A    between atoms: N_3  and  N_4 
REMARK    3  A    between atoms: N_4  and  C_5 
ROOT
ATOM      1  N   UNL d   1       2.408  -2.160  -1.315  0.00  0.00    -0.200 NA
ATOM      2  H   UNL d   1       1.468  -1.902  -1.644  0.00  0.00     0.153 HD
ENDROOT
BRANCH   1   3
ATOM      3  N   UNL d   1       3.111  -1.000  -0.830  0.00  0.00    -0.281 N 
ATOM      4  C   UNL d   1       2.353  -0.116  -0.050  0.00  0.00     0.289 C 
ATOM      5  O   UNL d   1       1.116  -0.184  -0.055  0.00  0.00    -0.264 OA
ATOM      6  H   UNL d   1       4.116  -1.069  -0.706  0.00  0.00     0.184 HD
BRANCH   4   7
ATOM      7  C   UNL d   1       3.056   0.810   0.828  0.00  0.00     0.143 A 
ATOM      8  C   UNL d   1       2.685   1.249   2.090  0.00  0.00     0.045 A 
ATOM      9  C   UNL d   1       3.663   2.167   2.530  0.00  0.00     0.027 A 
ATOM     10  C   UNL d   1       4.555   2.286   1.490  0.00  0.00     0.143 A 
ATOM     11  O   UNL d   1       4.219   1.447   0.463  0.00  0.00    -0.317 OA
ENDBRANCH   4   7
ENDBRANCH   1   3
BRANCH   1  12
ATOM     12  C   UNL d   1       3.115  -3.004  -2.209  0.00  0.00     0.069 A 
ATOM     13  C   UNL d   1       4.227  -3.731  -1.753  0.00  0.00     0.031 A 
ATOM     14  C   UNL d   1       4.883  -4.652  -2.583  0.00  0.00     0.047 A 
ATOM     15  C   UNL d   1       4.442  -4.848  -3.887  0.00  0.00     0.158 A 
ATOM     16  F   UNL d   1       5.065  -5.745  -4.664  0.00  0.00    -0.203 F 
ATOM     17  C   UNL d   1       3.362  -4.125  -4.372  0.00  0.00     0.195 A 
ATOM     18  F   UNL d   1       2.951  -4.315  -5.636  0.00  0.00    -0.199 F 
ATOM     19  C   UNL d   1       2.705  -3.212  -3.542  0.00  0.00     0.180 A 
ATOM     20  F   UNL d   1       1.657  -2.530  -4.032  0.00  0.00    -0.201 F 
ENDBRANCH   1  12
TORSDOF 3
