REMARK  8 active torsions:
REMARK  status: ('A' for Active; 'I' for Inactive)
REMARK    1  A    between atoms: C_2  and  C_3 
REMARK    2  A    between atoms: C_3  and  N_5 
REMARK       I    between atoms: N_5  and  C_6 
REMARK    3  A    between atoms: C_6  and  C_8 
REMARK    4  A    between atoms: C_8  and  C_9 
REMARK    5  A    between atoms: C_9  and  N_10 
REMARK       I    between atoms: N_10  and  C_11 
REMARK       I    between atoms: C_11  and  N_13 
REMARK    6  A    between atoms: N_13  and  O_14 
REMARK    7  A    between atoms: O_14  and  C_15 
REMARK    8  A    between atoms: C_15  and  C_16 
ROOT
ATOM      1  N   UNL d   1       8.820  -2.361   3.359  0.00  0.00    -0.341 N 
ATOM      2  C   UNL d   1       9.473  -3.074   4.355  0.00  0.00     0.339 C 
ATOM      3  O   UNL d   1       8.861  -3.696   5.223  0.00  0.00    -0.245 OA
ATOM      4  N   UNL d   1      10.848  -3.013   4.263  0.00  0.00    -0.216 N 
ATOM      5  H   UNL d   1       9.360  -1.865   2.670  0.00  0.00     0.164 HD
ATOM      6  H   UNL d   1      11.349  -2.500   3.558  0.00  0.00     0.199 HD
ENDROOT
BRANCH   1   7
ATOM      7  C   UNL d   1       7.354  -2.316   3.305  0.00  0.00     0.134 C 
BRANCH   7   8
ATOM      8  C   UNL d   1       6.770  -1.480   2.148  0.00  0.00     0.122 C 
BRANCH   8   9
ATOM      9  C   UNL d   1       5.244  -1.482   2.209  0.00  0.00     0.219 C 
ATOM     10  N   UNL d   1       4.580  -0.824   1.181  0.00  0.00    -0.357 N 
ATOM     11  H   UNL d   1       5.104  -0.311   0.483  0.00  0.00     0.162 HD
ATOM     12  O   UNL d   1       4.639  -2.045   3.119  0.00  0.00    -0.274 OA
BRANCH  10  13
ATOM     13  C   UNL d   1       3.105  -0.807   1.122  0.00  0.00     0.080 C 
ATOM     14  C   UNL d   1       2.560  -2.234   0.984  0.00  0.00     0.032 C 
BRANCH  13  15
ATOM     15  C   UNL d   1       2.569   0.071  -0.032  0.00  0.00     0.020 C 
ATOM     16  C   UNL d   1       1.040   0.129  -0.073  0.00  0.00     0.007 C 
ENDBRANCH  13  15
ENDBRANCH  10  13
ENDBRANCH   8   9
ENDBRANCH   7   8
ENDBRANCH   1   7
BRANCH   4  17
ATOM     17  O   UNL d   1      11.584  -3.724   5.253  0.00  0.00    -0.272 OA
BRANCH  17  18
ATOM     18  C   UNL d   1      13.002  -3.592   5.056  0.00  0.00     0.240 C 
BRANCH  18  19
ATOM     19  C   UNL d   1      13.721  -4.359   6.147  0.00  0.00    -0.032 A 
ATOM     20  C   UNL d   1      13.650  -5.759   6.189  0.00  0.00     0.009 A 
ATOM     21  C   UNL d   1      14.111  -6.459   7.307  0.00  0.00     0.001 A 
ATOM     22  C   UNL d   1      14.739  -5.780   8.349  0.00  0.00     0.000 A 
ATOM     23  C   UNL d   1      14.892  -4.397   8.281  0.00  0.00     0.001 A 
ATOM     24  C   UNL d   1      14.383  -3.689   7.188  0.00  0.00     0.009 A 
ENDBRANCH  18  19
ENDBRANCH  17  18
ENDBRANCH   4  17
TORSDOF 8
