@<TRIPOS>MOLECULE
*****
 47 49 0 0 0
SMALL
GASTEIGER

@<TRIPOS>ATOM
      1 O           1.1009    0.0341   -0.0781 O.2     1  UNL1       -0.2749
      2 C           2.3295   -0.0960   -0.0423 C.2     1  UNL1        0.2233
      3 C           3.0641   -1.4041    0.3119 C.3     1  UNL1        0.0776
      4 S           1.8764   -2.7403    0.6489 S.3     1  UNL1       -0.0750
      5 C           2.8526   -4.1368    1.0228 C.ar    1  UNL1        0.2105
      6 N           2.3541   -5.3658    0.8398 N.ar    1  UNL1       -0.1443
      7 N           3.3437   -6.1356    1.3235 N.ar    1  UNL1       -0.2446
      8 C           4.3892   -5.3814    1.7912 C.ar    1  UNL1        0.2317
      9 N           5.4989   -5.9447    2.3510 N.pl3   1  UNL1       -0.2054
     10 N           6.4923   -5.1451    2.8463 N.2     1  UNL1       -0.1875
     11 C           7.5742   -5.6994    3.2934 C.2     1  UNL1        0.0542
     12 C           8.6810   -4.8496    3.8096 C.ar    1  UNL1        0.0143
     13 C           8.3455   -3.7126    4.5618 C.ar    1  UNL1       -0.0516
     14 C           9.3426   -2.8683    5.0548 C.ar    1  UNL1       -0.0597
     15 C          10.6823   -3.1541    4.8021 C.ar    1  UNL1       -0.0419
     16 C          11.0273   -4.2901    4.0607 C.ar    1  UNL1        0.0599
     17 CL         12.7171   -4.5779    3.8119 Cl      1  UNL1       -0.0820
     18 C          10.0296   -5.1464    3.5561 C.ar    1  UNL1        0.0679
     19 CL         10.4592   -6.5224    2.5916 Cl      1  UNL1       -0.0814
     20 N           4.0929   -4.1081    1.5956 N.ar    1  UNL1       -0.1865
     21 N           3.0734    1.0187   -0.3447 N.am    1  UNL1       -0.3143
     22 C           4.5183    1.1194   -0.3734 C.3     1  UNL1        0.0156
     23 C           5.0205    2.5166   -0.7507 C.3     1  UNL1       -0.0121
     24 C           6.5302    2.5558   -0.7636 C.ar    1  UNL1       -0.0457
     25 C           7.2394    2.2561   -1.9372 C.ar    1  UNL1       -0.0558
     26 C           8.6351    2.2473   -1.9335 C.ar    1  UNL1       -0.0262
     27 C           9.3198    2.5411   -0.7606 C.ar    1  UNL1        0.1234
     28 F          10.6593    2.5356   -0.7591 F       1  UNL1       -0.2055
     29 C           8.6357    2.8378    0.4117 C.ar    1  UNL1       -0.0262
     30 C           7.2403    2.8401    0.4131 C.ar    1  UNL1       -0.0558
     31 H           3.6877   -1.2225    1.1920 H       1  UNL1        0.0475
     32 H           3.6941   -1.6828   -0.5385 H       1  UNL1        0.0475
     33 H           3.2277   -7.1416    1.3092 H       1  UNL1        0.1919
     34 H           5.5991   -6.9574    2.4115 H       1  UNL1        0.1774
     35 H           7.7243   -6.7940    3.3045 H       1  UNL1        0.0852
     36 H           7.3014   -3.4840    4.7716 H       1  UNL1        0.0624
     37 H           9.0748   -1.9869    5.6344 H       1  UNL1        0.0618
     38 H          11.4541   -2.4875    5.1845 H       1  UNL1        0.0633
     39 H           2.5082    1.8335   -0.5642 H       1  UNL1        0.1487
     40 H           4.8840    0.3762   -1.0894 H       1  UNL1        0.0465
     41 H           4.8851    0.8363    0.6187 H       1  UNL1        0.0465
     42 H           4.6394    3.2681   -0.0465 H       1  UNL1        0.0328
     43 H           4.6344    2.8149   -1.7344 H       1  UNL1        0.0328
     44 H           6.7101    2.0237   -2.8591 H       1  UNL1        0.0621
     45 H           9.1917    2.0118   -2.8350 H       1  UNL1        0.0646
     46 H           9.1922    3.0621    1.3159 H       1  UNL1        0.0646
     47 H           6.7107    3.0611    1.3375 H       1  UNL1        0.0621
@<TRIPOS>BOND
     1     1     2    2
     2     2     3    1
     3     3     4    1
     4     4     5    1
     5     5     6   ar
     6     6     7   ar
     7     7     8   ar
     8     8     9    1
     9     9    10    1
    10    10    11    2
    11    11    12    1
    12    12    13   ar
    13    13    14   ar
    14    14    15   ar
    15    15    16   ar
    16    16    17    1
    17    16    18   ar
    18    12    18   ar
    19    18    19    1
    20     8    20   ar
    21     5    20   ar
    22     2    21   am
    23    21    22    1
    24    22    23    1
    25    23    24    1
    26    24    25   ar
    27    25    26   ar
    28    26    27   ar
    29    27    28    1
    30    27    29   ar
    31    29    30   ar
    32    24    30   ar
    33     3    31    1
    34     3    32    1
    35     7    33    1
    36     9    34    1
    37    11    35    1
    38    13    36    1
    39    14    37    1
    40    15    38    1
    41    21    39    1
    42    22    40    1
    43    22    41    1
    44    23    42    1
    45    23    43    1
    46    25    44    1
    47    26    45    1
    48    29    46    1
    49    30    47    1
