REMARK  12 active torsions:
REMARK  status: ('A' for Active; 'I' for Inactive)
REMARK    1  A    between atoms: C_2  and  N_3 
REMARK    2  A    between atoms: N_3  and  C_4 
REMARK    3  A    between atoms: N_3  and  C_6 
REMARK    4  A    between atoms: C_6  and  C_7 
REMARK    5  A    between atoms: C_7  and  N_8 
REMARK       I    between atoms: N_8  and  C_9 
REMARK    6  A    between atoms: C_9  and  C_11 
REMARK    7  A    between atoms: C_14  and  N_15 
REMARK    8  A    between atoms: N_15  and  C_16 
REMARK    9  A    between atoms: C_16  and  N_18 
REMARK       I    between atoms: N_18  and  C_19 
REMARK   10  A    between atoms: C_19  and  C_21 
REMARK   11  A    between atoms: C_22  and  C_23 
REMARK   12  A    between atoms: C_27  and  N_28 
ROOT
ATOM      1  N   UNL d   1      12.916   3.871   0.942  0.00  0.00    -0.333 N 
ATOM      2  H   UNL d   1      13.438   4.289   1.709  0.00  0.00     0.168 HD
ENDROOT
BRANCH   1   3
ATOM      3  C   UNL d   1      11.453   3.922   1.115  0.00  0.00     0.034 A 
ATOM      4  C   UNL d   1      10.813   4.477   2.236  0.00  0.00     0.030 A 
ATOM      5  C   UNL d   1       9.389   4.382   2.391  0.00  0.00     0.019 A 
ATOM      6  C   UNL d   1       8.590   3.771   1.413  0.00  0.00     0.032 A 
ATOM      7  C   UNL d   1       9.199   3.272   0.294  0.00  0.00     0.019 A 
ATOM      8  C   UNL d   1      10.570   3.405   0.163  0.00  0.00     0.030 A 
BRANCH   6   9
ATOM      9  C   UNL d   1       7.106   3.784   1.418  0.00  0.00     0.251 C 
ATOM     10  N   UNL d   1       6.484   2.646   0.903  0.00  0.00    -0.355 N 
ATOM     11  H   UNL d   1       7.047   1.834   0.676  0.00  0.00     0.162 HD
ATOM     12  O   UNL d   1       6.490   4.753   1.810  0.00  0.00    -0.268 OA
BRANCH  10  13
ATOM     13  C   UNL d   1       5.040   2.594   0.886  0.00  0.00     0.150 C 
BRANCH  13  14
ATOM     14  C   UNL d   1       4.466   1.237   0.451  0.00  0.00     0.254 C 
BRANCH  14  15
ATOM     15  N   UNL d   1       2.923   1.188   0.495  0.00  0.00    -0.070 N 
ATOM     16  H   UNL d   1       2.584   1.918  -0.149  0.00  0.00     0.279 HD
BRANCH  15  17
ATOM     17  C   UNL d   1       2.475  -0.166  -0.051  0.00  0.00     0.230 C 
ATOM     18  C   UNL d   1       0.977  -0.279  -0.255  0.00  0.00     0.034 C 
ENDBRANCH  15  17
BRANCH  15  19
ATOM     19  C   UNL d   1       2.431   1.509   1.900  0.00  0.00     0.230 C 
ATOM     20  C   UNL d   1       0.935   1.689   2.016  0.00  0.00     0.034 C 
ENDBRANCH  15  19
ENDBRANCH  14  15
ENDBRANCH  13  14
ENDBRANCH  10  13
ENDBRANCH   6   9
ENDBRANCH   1   3
BRANCH   1  21
ATOM     21  C   UNL d   1      13.628   3.190  -0.104  0.00  0.00     0.179 C 
ATOM     22  S   UNL d   1      12.905   2.308  -1.357  0.00  0.00    -0.040 SA
BRANCH  21  23
ATOM     23  N   UNL d   1      15.046   3.261  -0.059  0.00  0.00    -0.300 N 
ATOM     24  C   UNL d   1      15.865   2.687  -1.059  0.00  0.00     0.247 C 
ATOM     25  O   UNL d   1      15.468   2.107  -2.068  0.00  0.00    -0.268 OA
ATOM     26  H   UNL d   1      15.502   3.706   0.724  0.00  0.00     0.171 HD
BRANCH  24  27
ATOM     27  C   UNL d   1      17.339   2.768  -0.946  0.00  0.00     0.075 C 
ATOM     28  C   UNL d   1      18.034   2.213  -1.968  0.00  0.00     0.017 C 
BRANCH  28  29
ATOM     29  C   UNL d   1      19.490   2.115  -2.023  0.00  0.00    -0.034 A 
ATOM     30  C   UNL d   1      20.193   2.304  -3.222  0.00  0.00     0.011 A 
ATOM     31  C   UNL d   1      21.578   2.105  -3.267  0.00  0.00     0.003 A 
ATOM     32  C   UNL d   1      22.274   1.765  -2.106  0.00  0.00     0.036 A 
ATOM     33  C   UNL d   1      21.564   1.558  -0.919  0.00  0.00     0.103 A 
ATOM     34  C   UNL d   1      20.178   1.719  -0.878  0.00  0.00     0.047 A 
BRANCH  33  35
ATOM     35  N   UNL d   1      22.256   1.130   0.298  0.00  0.00    -0.116 N 
ATOM     36  O   UNL d   1      23.484   0.986   0.243  0.00  0.00    -0.532 OA
ATOM     37  O   UNL d   1      21.567   0.935   1.311  0.00  0.00    -0.532 OA
ENDBRANCH  33  35
ENDBRANCH  28  29
ENDBRANCH  24  27
ENDBRANCH  21  23
ENDBRANCH   1  21
TORSDOF 12
