REMARK  9 active torsions:
REMARK  status: ('A' for Active; 'I' for Inactive)
REMARK    1  A    between atoms: C_2  and  C_5 
REMARK    2  A    between atoms: C_7  and  C_8 
REMARK    3  A    between atoms: C_8  and  C_10 
REMARK    4  A    between atoms: C_10  and  N_11 
REMARK    5  A    between atoms: N_14  and  C_15 
REMARK    6  A    between atoms: C_15  and  C_16 
REMARK    7  A    between atoms: C_16  and  N_17 
REMARK    8  A    between atoms: C_30  and  C_31 
REMARK    9  A    between atoms: C_35  and  O_36 
ROOT
ATOM      1  N   UNL d   1       3.860  -5.074   5.342  0.00  0.00    -0.174 N 
ATOM      2  C   UNL d   1       4.274  -6.026   4.442  0.00  0.00     0.681 A 
ATOM      3  N   UNL d   1       4.832  -5.716   3.251  0.00  0.00    -0.234 N 
ATOM      4  N   UNL d   1       4.093  -7.308   4.913  0.00  0.00    -0.180 N 
ATOM      5  C   UNL d   1       3.543  -7.155   6.224  0.00  0.00     0.079 A 
ATOM      6  C   UNL d   1       3.209  -8.116   7.157  0.00  0.00     0.032 A 
ATOM      7  C   UNL d   1       2.724  -7.661   8.386  0.00  0.00     0.002 A 
ATOM      8  C   UNL d   1       2.577  -6.282   8.643  0.00  0.00     0.002 A 
ATOM      9  C   UNL d   1       2.913  -5.324   7.680  0.00  0.00     0.032 A 
ATOM     10  C   UNL d   1       3.398  -5.786   6.479  0.00  0.00     0.079 A 
ATOM     11  H   UNL d   1       4.732  -4.760   2.929  0.00  0.00     0.174 HD
ATOM     12  H   UNL d   1       4.951  -6.293   2.447  0.00  0.00     0.174 HD
ENDROOT
BRANCH   1  13
ATOM     13  C   UNL d   1       3.841  -3.635   5.133  0.00  0.00     0.231 C 
BRANCH  13  14
ATOM     14  C   UNL d   1       3.344  -3.296   3.743  0.00  0.00     0.178 C 
ATOM     15  O   UNL d   1       2.994  -4.180   2.942  0.00  0.00    -0.290 OA
BRANCH  14  16
ATOM     16  C   UNL d   1       3.420  -1.912   3.264  0.00  0.00     0.013 A 
ATOM     17  C   UNL d   1       3.057  -1.652   1.943  0.00  0.00     0.026 A 
ATOM     18  C   UNL d   1       3.083  -0.348   1.443  0.00  0.00    -0.016 A 
ATOM     19  C   UNL d   1       3.485   0.678   2.321  0.00  0.00     0.079 A 
ATOM     20  C   UNL d   1       3.868   0.455   3.651  0.00  0.00    -0.016 A 
ATOM     21  C   UNL d   1       3.839  -0.879   4.099  0.00  0.00     0.026 A 
BRANCH  18  22
ATOM     22  C   UNL d   1       2.582  -0.042   0.008  0.00  0.00    -0.021 C 
ATOM     23  C   UNL d   1       1.044  -0.042   0.051  0.00  0.00     0.019 C 
ATOM     24  C   UNL d   1       3.092  -1.106  -0.978  0.00  0.00     0.019 C 
ATOM     25  C   UNL d   1       3.032   1.317  -0.601  0.00  0.00     0.019 C 
ENDBRANCH  18  22
BRANCH  19  26
ATOM     26  O   UNL d   1       3.413   1.889   1.739  0.00  0.00    -0.360 OA
ATOM     27  H   UNL d   1       3.721   2.690   2.150  0.00  0.00     0.217 HD
ENDBRANCH  19  26
BRANCH  20  28
ATOM     28  C   UNL d   1       4.269   1.543   4.659  0.00  0.00    -0.021 C 
ATOM     29  C   UNL d   1       3.286   1.522   5.845  0.00  0.00     0.019 C 
ATOM     30  C   UNL d   1       5.708   1.280   5.139  0.00  0.00     0.019 C 
ATOM     31  C   UNL d   1       4.254   2.980   4.126  0.00  0.00     0.019 C 
ENDBRANCH  20  28
ENDBRANCH  14  16
ENDBRANCH  13  14
ENDBRANCH   1  13
BRANCH   4  32
ATOM     32  C   UNL d   1       4.346  -8.586   4.293  0.00  0.00     0.175 C 
BRANCH  32  33
ATOM     33  C   UNL d   1       4.873  -8.507   2.859  0.00  0.00     0.255 C 
BRANCH  33  34
ATOM     34  N   UNL d   1       5.219  -9.823   2.267  0.00  0.00    -0.070 N 
ATOM     35  C   UNL d   1       6.638 -10.219   2.652  0.00  0.00     0.235 C 
ATOM     36  C   UNL d   1       6.950 -11.591   2.101  0.00  0.00     0.028 C 
ATOM     37  C   UNL d   1       5.905 -12.579   2.593  0.00  0.00     0.003 C 
ATOM     38  C   UNL d   1       4.555 -12.201   1.999  0.00  0.00     0.028 C 
ATOM     39  C   UNL d   1       4.145 -10.860   2.545  0.00  0.00     0.235 C 
ATOM     40  H   UNL d   1       5.236  -9.694   1.242  0.00  0.00     0.279 HD
ENDBRANCH  33  34
ENDBRANCH  32  33
ENDBRANCH   4  32
TORSDOF 9
