REMARK  3 active torsions:
REMARK  status: ('A' for Active; 'I' for Inactive)
REMARK       I    between atoms: C_2  and  N_4 
REMARK    1  A    between atoms: N_4  and  C_5 
REMARK    2  A    between atoms: C_8  and  N_9 
REMARK       I    between atoms: N_9  and  C_10 
REMARK    3  A    between atoms: C_10  and  C_12 
ROOT
ATOM      1  C   UNL d   1       4.610  -0.775   0.965  0.00  0.00     0.036 A 
ATOM      2  C   UNL d   1       5.424   0.340   0.799  0.00  0.00     0.032 A 
ATOM      3  C   UNL d   1       6.832   0.220   0.841  0.00  0.00     0.033 A 
ATOM      4  C   UNL d   1       7.471  -1.036   1.004  0.00  0.00     0.057 A 
ATOM      5  C   UNL d   1       6.608  -2.154   1.140  0.00  0.00     0.062 A 
ATOM      6 CL   UNL d   1       6.988  -3.836   1.235  0.00  0.00    -0.082 Cl
ATOM      7  C   UNL d   1       5.211  -2.002   1.165  0.00  0.00     0.055 A 
ENDROOT
BRANCH   4   8
ATOM      8  N   UNL d   1       8.914  -1.020   1.006  0.00  0.00    -0.320 N 
ATOM      9  C   UNL d   1       9.766  -2.114   1.134  0.00  0.00     0.274 C 
ATOM     10  O   UNL d   1       9.461  -3.284   1.340  0.00  0.00    -0.266 OA
ATOM     11  H   UNL d   1       9.352  -0.114   0.864  0.00  0.00     0.169 HD
BRANCH   9  12
ATOM     12  C   UNL d   1      11.233  -1.933   1.067  0.00  0.00     0.124 A 
ATOM     13  C   UNL d   1      11.877  -1.034   1.898  0.00  0.00     0.037 A 
ATOM     14  C   UNL d   1      13.269  -1.087   1.940  0.00  0.00     0.004 A 
ATOM     15  C   UNL d   1      13.953  -2.049   1.196  0.00  0.00     0.019 A 
ATOM     16  C   UNL d   1      13.222  -2.938   0.433  0.00  0.00     0.117 A 
ATOM     17  N   UNL d   1      11.885  -2.883   0.337  0.00  0.00    -0.256 NA
ENDBRANCH   9  12
ENDBRANCH   4   8
BRANCH   1  18
ATOM     18  N   UNL d   1       3.200  -0.721   0.925  0.00  0.00    -0.327 N 
ATOM     19  C   UNL d   1       2.529   0.003  -0.046  0.00  0.00     0.218 C 
ATOM     20  C   UNL d   1       1.027  -0.107   0.016  0.00  0.00     0.117 C 
ATOM     21  O   UNL d   1       3.071   0.668  -0.925  0.00  0.00    -0.274 OA
ATOM     22  H   UNL d   1       2.695  -1.474   1.380  0.00  0.00     0.169 HD
ENDBRANCH   1  18
TORSDOF 3
