@<TRIPOS>MOLECULE
*****
 29 30 0 0 0
SMALL
GASTEIGER

@<TRIPOS>ATOM
      1 O           1.0298    0.0538    0.0053 O.2     1  UNL1       -0.2687
      2 C           2.2628    0.0325   -0.0004 C.2     1  UNL1        0.2601
      3 N           3.0139   -1.0754    0.3750 N.am    1  UNL1       -0.2325
      4 N           2.3430   -2.2852    0.5885 N.pl3   1  UNL1       -0.2642
      5 C           3.0355   -3.4105    1.0589 C.ar    1  UNL1        0.0446
      6 C           4.1331   -3.3344    1.9277 C.ar    1  UNL1       -0.0359
      7 C           4.8422   -4.4853    2.3173 C.ar    1  UNL1       -0.0184
      8 C           4.4671   -5.7267    1.8180 C.ar    1  UNL1        0.1170
      9 O           5.1246   -6.8748    2.1491 O.3     1  UNL1       -0.5068
     10 C           3.3891   -5.8316    0.9517 C.ar    1  UNL1       -0.0184
     11 C           2.6710   -4.6832    0.5876 C.ar    1  UNL1       -0.0359
     12 C           3.0116    1.2713   -0.3783 C.ar    1  UNL1        0.0382
     13 C           2.5663    2.5005    0.1354 C.ar    1  UNL1       -0.0485
     14 C           3.2226    3.6951   -0.1897 C.ar    1  UNL1       -0.0470
     15 C           4.3161    3.6688   -1.0509 C.ar    1  UNL1        0.0179
     16 BR          5.2115    5.2794   -1.4813 Br      1  UNL1       -0.0503
     17 C           4.7493    2.4599   -1.5980 C.ar    1  UNL1       -0.0470
     18 C           4.0987    1.2589   -1.2635 C.ar    1  UNL1       -0.0485
     19 H           4.0242   -1.1124    0.3058 H       1  UNL1        0.1730
     20 H           1.3209   -2.2683    0.5960 H       1  UNL1        0.1700
     21 H           4.4221   -2.3761    2.3496 H       1  UNL1        0.0638
     22 H           5.6764   -4.3876    3.0052 H       1  UNL1        0.0655
     23 H           5.8312   -6.6731    2.7837 H       1  UNL1        0.2921
     24 H           3.1127   -6.8043    0.5527 H       1  UNL1        0.0655
     25 H           1.8388   -4.7927   -0.1039 H       1  UNL1        0.0638
     26 H           1.7022    2.5326    0.7964 H       1  UNL1        0.0625
     27 H           2.8711    4.6356    0.2293 H       1  UNL1        0.0629
     28 H           5.5869    2.4487   -2.2929 H       1  UNL1        0.0629
     29 H           4.4281    0.3359   -1.7325 H       1  UNL1        0.0625
@<TRIPOS>BOND
     1     1     2    2
     2     2     3   am
     3     3     4    1
     4     4     5    1
     5     5     6   ar
     6     6     7   ar
     7     7     8   ar
     8     8     9    1
     9     8    10   ar
    10    10    11   ar
    11     5    11   ar
    12     2    12    1
    13    12    13   ar
    14    13    14   ar
    15    14    15   ar
    16    15    16    1
    17    15    17   ar
    18    17    18   ar
    19    12    18   ar
    20     3    19    1
    21     4    20    1
    22     6    21    1
    23     7    22    1
    24     9    23    1
    25    10    24    1
    26    11    25    1
    27    13    26    1
    28    14    27    1
    29    17    28    1
    30    18    29    1
