@<TRIPOS>MOLECULE
*****
 45 49 0 0 0
SMALL
GASTEIGER

@<TRIPOS>ATOM
      1 C           2.1722    0.7417   -0.0113 C.ar    1  UNL1       -0.0596
      2 C           2.2152   -0.6563   -0.0013 C.ar    1  UNL1       -0.0597
      3 C           1.0469   -1.4199    0.0074 C.ar    1  UNL1       -0.0363
      4 C          -0.1479   -0.7072    0.0013 C.ar    1  UNL1        0.0662
      5 N          -1.4470   -1.1250   -0.0122 N.ar    1  UNL1       -0.3418
      6 C          -2.2530   -0.0141   -0.0004 C.ar    1  UNL1        0.1099
      7 C          -3.7331   -0.0513    0.0056 C.3     1  UNL1        0.0236
      8 C          -4.3196   -1.4543    0.0112 C.3     1  UNL1        0.0356
      9 N          -5.7886   -1.4960    0.0569 N.ar    1  UNL1       -0.2886
     10 C          -6.6435   -0.3981   -0.0053 C.ar    1  UNL1        0.0738
     11 C          -7.9141   -0.8834   -0.0267 C.ar    1  UNL1        0.1876
     12 N          -7.7967   -2.2484   -0.0313 N.ar    1  UNL1       -0.1942
     13 C          -6.5169   -2.6368    0.0476 C.ar    1  UNL1        0.2914
     14 C          -6.0348   -4.0543    0.0966 C.ar    1  UNL1        0.0690
     15 C          -6.4146   -4.9440   -0.9125 C.ar    1  UNL1       -0.0430
     16 C          -5.9510   -6.2626   -0.8763 C.ar    1  UNL1       -0.0155
     17 C          -5.1514   -6.6957    0.1822 C.ar    1  UNL1        0.1621
     18 C          -4.7790   -5.8006    1.1876 C.ar    1  UNL1        0.1629
     19 C          -5.2184   -4.4775    1.1481 C.ar    1  UNL1       -0.0012
     20 O          -3.9966   -6.1510    2.2551 O.3     1  UNL1       -0.4849
     21 C          -3.3331   -7.4052    2.0423 C.3     1  UNL1        0.1237
     22 C          -4.2758   -8.4371    1.4438 C.3     1  UNL1        0.1237
     23 O          -4.7622   -8.0078    0.1654 O.3     1  UNL1       -0.4849
     24 N          -1.5373    1.0871    0.0057 N.ar    1  UNL1       -0.2324
     25 C          -0.2275    0.6778    0.0018 C.ar    1  UNL1        0.0891
     26 C           0.9516    1.4292   -0.0035 C.ar    1  UNL1       -0.0342
     27 H           3.1007    1.3069   -0.0258 H       1  UNL1        0.0618
     28 H           3.1778   -1.1628   -0.0026 H       1  UNL1        0.0618
     29 H           1.0744   -2.5034    0.0141 H       1  UNL1        0.0639
     30 H          -1.7273   -2.0917   -0.0306 H       1  UNL1        0.1671
     31 H          -4.0942    0.4968   -0.8733 H       1  UNL1        0.0361
     32 H          -4.0855    0.4914    0.8916 H       1  UNL1        0.0361
     33 H          -3.9469   -2.0003    0.8845 H       1  UNL1        0.0498
     34 H          -4.0042   -2.0009   -0.8879 H       1  UNL1        0.0498
     35 H          -6.2489    0.6043   -0.0269 H       1  UNL1        0.0871
     36 H          -8.8849   -0.4229   -0.0487 H       1  UNL1        0.1392
     37 H          -8.5745   -2.9034   -0.0069 H       1  UNL1        0.4545
     38 H          -7.0275   -4.6221   -1.7515 H       1  UNL1        0.0627
     39 H          -6.2168   -6.9613   -1.6680 H       1  UNL1        0.0655
     40 H          -4.9491   -3.8108    1.9631 H       1  UNL1        0.0664
     41 H          -2.9622   -7.7529    3.0119 H       1  UNL1        0.0731
     42 H          -2.4698   -7.2287    1.3896 H       1  UNL1        0.0731
     43 H          -5.1350   -8.6239    2.0995 H       1  UNL1        0.0731
     44 H          -3.7474   -9.3849    1.2968 H       1  UNL1        0.0731
     45 H           0.9126    2.5126   -0.0060 H       1  UNL1        0.0639
@<TRIPOS>UNITY_ATOM_ATTR
12 1
charge 1
@<TRIPOS>BOND
     1     1     2   ar
     2     2     3   ar
     3     3     4   ar
     4     4     5   ar
     5     5     6   ar
     6     6     7    1
     7     7     8    1
     8     8     9    1
     9     9    10   ar
    10    10    11   ar
    11    11    12   ar
    12    12    13   ar
    13     9    13   ar
    14    13    14    1
    15    14    15   ar
    16    15    16   ar
    17    16    17   ar
    18    17    18   ar
    19    18    19   ar
    20    14    19   ar
    21    18    20    1
    22    20    21    1
    23    21    22    1
    24    22    23    1
    25    17    23    1
    26     6    24   ar
    27    24    25   ar
    28     4    25   ar
    29    25    26   ar
    30     1    26   ar
    31     1    27    1
    32     2    28    1
    33     3    29    1
    34     5    30    1
    35     7    31    1
    36     7    32    1
    37     8    33    1
    38     8    34    1
    39    10    35    1
    40    11    36    1
    41    12    37    1
    42    15    38    1
    43    16    39    1
    44    19    40    1
    45    21    41    1
    46    21    42    1
    47    22    43    1
    48    22    44    1
    49    26    45    1
