@<TRIPOS>MOLECULE
*****
 56 59 0 0 0
SMALL
GASTEIGER

@<TRIPOS>ATOM
      1 C           1.0721   -0.0624    0.0088 C.3     1  UNL1        0.0790
      2 O           2.4937   -0.0144    0.0226 O.3     1  UNL1       -0.4913
      3 C           3.0796    1.2321    0.0216 C.ar    1  UNL1        0.1653
      4 C           4.4722    1.1874    0.0040 C.ar    1  UNL1       -0.0120
      5 C           5.2250    2.3652   -0.0271 C.ar    1  UNL1       -0.0280
      6 C           6.7484    2.2750   -0.0685 C.3     1  UNL1        0.0476
      7 C           7.3566    2.9460    1.1442 C.2     1  UNL1        0.0240
      8 C           8.1789    4.0086    1.0113 C.2     1  UNL1        0.0172
      9 C           8.7049    4.7713    2.2039 C.3     1  UNL1       -0.0085
     10 C           7.8217    4.5776    3.4565 C.3     1  UNL1       -0.0228
     11 C           6.4455    5.2555    3.2632 C.3     1  UNL1       -0.0591
     12 C           8.5034    5.2063    4.6760 C.3     1  UNL1       -0.0591
     13 C           7.6479    3.0721    3.6919 C.3     1  UNL1        0.0157
     14 C           6.9742    2.4424    2.5005 C.2     1  UNL1        0.1621
     15 O           6.1624    1.5339    2.6527 O.2     1  UNL1       -0.2923
     16 N           8.5100    4.4731   -0.2479 N.pl3   1  UNL1       -0.3020
     17 C           8.0965    3.9142   -1.4455 C.ar    1  UNL1        0.1348
     18 N           8.5212    4.4539   -2.6427 N.ar    1  UNL1       -0.2080
     19 C           8.0967    3.8984   -3.7257 C.ar    1  UNL1        0.1705
     20 S           8.5135    4.4276   -5.3303 S.3     1  UNL1       -0.0912
     21 C           9.5875    5.8481   -5.0309 C.3     1  UNL1       -0.0107
     22 N           7.2715    2.8192   -3.7595 N.ar    1  UNL1       -0.3016
     23 C           6.8397    2.2137   -2.6289 C.ar    1  UNL1        0.2580
     24 O           6.1481    1.1959   -2.6680 O.2     1  UNL1       -0.2674
     25 C           7.2717    2.8451   -1.3751 C.ar    1  UNL1        0.0687
     26 C           4.5531    3.6008   -0.0283 C.ar    1  UNL1       -0.0120
     27 C           3.1514    3.6756    0.0084 C.ar    1  UNL1        0.1653
     28 O           2.6984    4.9714    0.0081 O.3     1  UNL1       -0.4913
     29 C           1.3027    5.1977    0.0386 C.3     1  UNL1        0.0790
     30 C           2.4183    2.4779    0.0315 C.ar    1  UNL1        0.2010
     31 O           1.0572    2.4023    0.0544 O.3     1  UNL1       -0.5009
     32 H           0.7480   -1.1026   -0.0047 H       1  UNL1        0.0660
     33 H           0.6724    0.4028   -0.9020 H       1  UNL1        0.0660
     34 H           0.6597    0.3803    0.9243 H       1  UNL1        0.0660
     35 H           4.9727    0.2202    0.0096 H       1  UNL1        0.0658
     36 H           7.0691    1.2234   -0.0240 H       1  UNL1        0.0450
     37 H           8.7689    5.8416    1.9700 H       1  UNL1        0.0331
     38 H           9.7290    4.4271    2.4019 H       1  UNL1        0.0331
     39 H           6.5594    6.3313    3.0980 H       1  UNL1        0.0235
     40 H           5.8071    5.1037    4.1397 H       1  UNL1        0.0235
     41 H           5.8959    4.8633    2.4022 H       1  UNL1        0.0235
     42 H           8.6442    6.2827    4.5320 H       1  UNL1        0.0235
     43 H           9.4856    4.7572    4.8575 H       1  UNL1        0.0235
     44 H           7.8978    5.0635    5.5782 H       1  UNL1        0.0235
     45 H           7.0397    2.8848    4.5849 H       1  UNL1        0.0350
     46 H           8.6111    2.5647    3.8298 H       1  UNL1        0.0350
     47 H           9.1062    5.2886   -0.3424 H       1  UNL1        0.1533
     48 H           9.9087    6.2536   -5.9974 H       1  UNL1        0.0345
     49 H          10.4861    5.5631   -4.4774 H       1  UNL1        0.0345
     50 H           9.0605    6.6436   -4.4975 H       1  UNL1        0.0345
     51 H           6.9864    2.4151   -4.6377 H       1  UNL1        0.1708
     52 H           5.1318    4.5243   -0.0549 H       1  UNL1        0.0658
     53 H           1.0898    6.2667    0.0281 H       1  UNL1        0.0660
     54 H           0.8785    4.8088    0.9730 H       1  UNL1        0.0660
     55 H           0.8315    4.7773   -0.8589 H       1  UNL1        0.0660
     56 H           0.5754    3.2198    0.1249 H       1  UNL1        0.2924
@<TRIPOS>BOND
     1     1     2    1
     2     2     3    1
     3     3     4   ar
     4     4     5   ar
     5     5     6    1
     6     6     7    1
     7     7     8    2
     8     8     9    1
     9     9    10    1
    10    10    11    1
    11    10    12    1
    12    10    13    1
    13    13    14    1
    14     7    14    1
    15    14    15    2
    16     8    16    1
    17    16    17    1
    18    17    18   ar
    19    18    19   ar
    20    19    20    1
    21    20    21    1
    22    19    22   ar
    23    22    23   ar
    24    23    24    2
    25    23    25   ar
    26    17    25   ar
    27     6    25    1
    28     5    26   ar
    29    26    27   ar
    30    27    28    1
    31    28    29    1
    32    27    30   ar
    33     3    30   ar
    34    30    31    1
    35     1    32    1
    36     1    33    1
    37     1    34    1
    38     4    35    1
    39     6    36    1
    40     9    37    1
    41     9    38    1
    42    11    39    1
    43    11    40    1
    44    11    41    1
    45    12    42    1
    46    12    43    1
    47    12    44    1
    48    13    45    1
    49    13    46    1
    50    16    47    1
    51    21    48    1
    52    21    49    1
    53    21    50    1
    54    22    51    1
    55    26    52    1
    56    29    53    1
    57    29    54    1
    58    29    55    1
    59    31    56    1
