REMARK  11 active torsions:
REMARK  status: ('A' for Active; 'I' for Inactive)
REMARK    1  A    between atoms: O_2  and  C_3 
REMARK    2  A    between atoms: C_6  and  N_7 
REMARK    3  A    between atoms: C_8  and  S_9 
REMARK    4  A    between atoms: S_9  and  C_10 
REMARK    5  A    between atoms: C_10  and  C_11 
REMARK    6  A    between atoms: C_11  and  N_12 
REMARK    7  A    between atoms: N_12  and  C_13 
REMARK    8  A    between atoms: C_13  and  C_14 
REMARK    9  A    between atoms: C_14  and  O_15 
REMARK   10  A    between atoms: C_18  and  C_19 
REMARK   11  A    between atoms: C_22  and  C_23 
ROOT
ATOM      1  N   UNL d   1       5.633  -3.447   3.027  0.00  0.00    -0.271 N 
ATOM      2  C   UNL d   1       6.089  -3.405   4.343  0.00  0.00     0.196 A 
ATOM      3  N   UNL d   1       6.770  -4.501   4.598  0.00  0.00    -0.122 NA
ATOM      4  N   UNL d   1       6.789  -5.280   3.481  0.00  0.00    -0.128 NA
ATOM      5  C   UNL d   1       6.145  -4.647   2.529  0.00  0.00     0.169 A 
ENDROOT
BRANCH   2   6
ATOM      6  S   UNL d   1       5.782  -2.323   5.673  0.00  0.00    -0.088 SA
BRANCH   6   7
ATOM      7  C   UNL d   1       4.812  -0.925   5.140  0.00  0.00     0.110 C 
BRANCH   7   8
ATOM      8  C   UNL d   1       4.549   0.047   6.299  0.00  0.00     0.243 C 
BRANCH   8   9
ATOM      9  N   UNL d   1       3.748   1.222   5.784  0.00  0.00    -0.072 N 
ATOM     10  H   UNL d   1       2.868   0.881   5.372  0.00  0.00     0.277 HD
ATOM     11  H   UNL d   1       4.267   1.682   5.021  0.00  0.00     0.277 HD
BRANCH   9  12
ATOM     12  C   UNL d   1       3.441   2.244   6.834  0.00  0.00     0.258 C 
BRANCH  12  13
ATOM     13  C   UNL d   1       2.615   3.394   6.256  0.00  0.00     0.191 C 
BRANCH  13  14
ATOM     14  O   UNL d   1       2.365   4.364   7.259  0.00  0.00    -0.399 OA
ATOM     15  H   UNL d   1       1.759   4.003   7.931  0.00  0.00     0.209 HD
ENDBRANCH  13  14
ENDBRANCH  12  13
ENDBRANCH   9  12
ENDBRANCH   8   9
ENDBRANCH   7   8
ENDBRANCH   6   7
ENDBRANCH   2   6
BRANCH   1  16
ATOM     16  C   UNL d   1       4.810  -2.553   2.293  0.00  0.00     0.043 A 
ATOM     17  C   UNL d   1       5.218  -1.242   2.053  0.00  0.00     0.033 A 
ATOM     18  C   UNL d   1       4.378  -0.374   1.343  0.00  0.00     0.039 A 
ATOM     19  C   UNL d   1       3.163  -0.819   0.809  0.00  0.00     0.068 A 
ATOM     20  C   UNL d   1       2.801  -2.153   0.972  0.00  0.00     0.039 A 
ATOM     21  C   UNL d   1       3.627  -3.024   1.701  0.00  0.00     0.033 A 
BRANCH  19  22
ATOM     22  O   UNL d   1       2.490   0.111   0.069  0.00  0.00    -0.356 OA
ATOM     23  C   UNL d   1       1.075  -0.014  -0.034  0.00  0.00     0.210 C 
ENDBRANCH  19  22
ENDBRANCH   1  16
BRANCH   5  24
ATOM     24  C   UNL d   1       6.103  -5.080   1.137  0.00  0.00     0.012 A 
ATOM     25  C   UNL d   1       5.540  -6.308   0.787  0.00  0.00     0.016 A 
ATOM     26  C   UNL d   1       5.528  -6.718  -0.549  0.00  0.00     0.009 A 
ATOM     27  C   UNL d   1       6.035  -5.892  -1.570  0.00  0.00    -0.051 A 
ATOM     28  C   UNL d   1       6.636  -4.682  -1.189  0.00  0.00     0.009 A 
ATOM     29  C   UNL d   1       6.677  -4.285   0.145  0.00  0.00     0.016 A 
BRANCH  27  30
ATOM     30  C   UNL d   1       5.880  -6.291  -3.045  0.00  0.00    -0.024 C 
ATOM     31  C   UNL d   1       6.613  -7.616  -3.327  0.00  0.00     0.019 C 
ATOM     32  C   UNL d   1       4.378  -6.464  -3.362  0.00  0.00     0.019 C 
ATOM     33  C   UNL d   1       6.436  -5.222  -4.011  0.00  0.00     0.019 C 
ENDBRANCH  27  30
ENDBRANCH   5  24
TORSDOF 11
