@<TRIPOS>MOLECULE
*****
 57 58 0 0 0
SMALL
GASTEIGER

@<TRIPOS>ATOM
      1 C           2.5087    1.1094    0.0081 C.3     1  UNL1       -0.0397
      2 C           1.2087    0.3627    0.0002 C.ar    1  UNL1       -0.0501
      3 C           1.2350   -1.0206    0.0050 C.ar    1  UNL1       -0.0571
      4 C           0.0491   -1.7458    0.0004 C.ar    1  UNL1       -0.0400
      5 C          -1.2178   -1.1462   -0.0058 C.ar    1  UNL1        0.0363
      6 N          -2.3989   -1.9618   -0.0149 N.am    1  UNL1       -0.2853
      7 C          -2.4147   -3.3542   -0.0284 C.2     1  UNL1        0.2177
      8 O          -1.4176   -4.0836   -0.0322 O.2     1  UNL1       -0.2755
      9 C          -3.7819   -4.0190   -0.0412 C.3     1  UNL1        0.0326
     10 C          -3.6168   -5.5640   -0.0553 C.3     1  UNL1        0.0336
     11 C          -4.9492   -6.3193   -0.0691 C.2     1  UNL1        0.2295
     12 O          -6.0357   -5.7390   -0.0690 O.2     1  UNL1       -0.2743
     13 N          -4.8553   -7.7040   -0.0820 N.am    1  UNL1       -0.2351
     14 N          -6.0476   -8.5573   -0.0961 N.am    1  UNL1       -0.2455
     15 C          -5.8882   -9.9592   -0.1072 C.2     1  UNL1        0.1531
     16 S          -4.3236  -10.5975   -0.1065 S.2     1  UNL1       -0.0170
     17 N          -7.0889  -10.7291   -0.1189 N.am    1  UNL1       -0.2639
     18 C          -7.1724  -12.1506   -0.1285 C.2     1  UNL1        0.2561
     19 O          -6.1705  -12.8690   -0.1356 O.2     1  UNL1       -0.2717
     20 C          -8.5705  -12.8510   -0.1415 C.3     1  UNL1        0.1655
     21 O          -8.3518  -14.2850   -0.0763 O.3     1  UNL1       -0.4828
     22 C          -9.4153  -15.1427   -0.1459 C.ar    1  UNL1        0.1215
     23 C          -9.3533  -16.2925    0.6509 C.ar    1  UNL1       -0.0189
     24 C         -10.3832  -17.2429    0.6236 C.ar    1  UNL1       -0.0441
     25 C         -11.4782  -17.0681   -0.2243 C.ar    1  UNL1        0.0210
     26 BR        -12.8364  -18.3982   -0.1681 Br      1  UNL1       -0.0500
     27 C         -11.5399  -15.9471   -1.0660 C.ar    1  UNL1       -0.0330
     28 C         -12.6715  -15.6887   -2.0221 C.3     1  UNL1       -0.0385
     29 C         -10.4898  -14.9962   -1.0207 C.ar    1  UNL1       -0.0160
     30 C          -1.2632    0.2671   -0.0043 C.ar    1  UNL1       -0.0290
     31 C          -2.5381    1.0718   -0.0052 C.3     1  UNL1       -0.0379
     32 C          -0.0400    1.0025   -0.0062 C.ar    1  UNL1       -0.0542
     33 H           3.3596    0.4150    0.0028 H       1  UNL1        0.0278
     34 H           2.5944    1.7197    0.9110 H       1  UNL1        0.0278
     35 H           2.5983    1.7378   -0.8820 H       1  UNL1        0.0278
     36 H           2.1724   -1.5713    0.0117 H       1  UNL1        0.0621
     37 H           0.1881   -2.8168    0.0025 H       1  UNL1        0.0636
     38 H          -3.2909   -1.4849   -0.0180 H       1  UNL1        0.1548
     39 H          -4.3278   -3.6895   -0.9317 H       1  UNL1        0.0363
     40 H          -4.3367   -3.7065    0.8499 H       1  UNL1        0.0363
     41 H          -3.0379   -5.8729    0.8269 H       1  UNL1        0.0363
     42 H          -3.0296   -5.8559   -0.9379 H       1  UNL1        0.0363
     43 H          -3.9606   -8.1997   -0.0820 H       1  UNL1        0.1728
     44 H          -6.9253   -8.0408   -0.0938 H       1  UNL1        0.1718
     45 H          -7.9616  -10.2188   -0.1166 H       1  UNL1        0.1566
     46 H          -9.0928  -12.5815   -1.0628 H       1  UNL1        0.0795
     47 H          -9.1399  -12.5561    0.7445 H       1  UNL1        0.0795
     48 H          -8.5027  -16.4604    1.3083 H       1  UNL1        0.0654
     49 H         -10.3254  -18.1180    1.2688 H       1  UNL1        0.0630
     50 H         -13.4485  -16.4553   -2.0019 H       1  UNL1        0.0278
     51 H         -12.2934  -15.6409   -3.0482 H       1  UNL1        0.0278
     52 H         -13.1521  -14.7385   -1.7682 H       1  UNL1        0.0278
     53 H         -10.5162  -14.1598   -1.7112 H       1  UNL1        0.0657
     54 H          -3.4364    0.4541    0.0256 H       1  UNL1        0.0278
     55 H          -2.5998    1.6854   -0.9109 H       1  UNL1        0.0278
     56 H          -2.5756    1.7286    0.8716 H       1  UNL1        0.0278
     57 H          -0.0626    2.0930   -0.0125 H       1  UNL1        0.0623
@<TRIPOS>BOND
     1     1     2    1
     2     2     3   ar
     3     3     4   ar
     4     4     5   ar
     5     5     6    1
     6     6     7   am
     7     7     8    2
     8     7     9    1
     9     9    10    1
    10    10    11    1
    11    11    12    2
    12    11    13   am
    13    13    14    1
    14    14    15    1
    15    15    16    2
    16    15    17    1
    17    17    18   am
    18    18    19    2
    19    18    20    1
    20    20    21    1
    21    21    22    1
    22    22    23   ar
    23    23    24   ar
    24    24    25   ar
    25    25    26    1
    26    25    27   ar
    27    27    28    1
    28    27    29   ar
    29    22    29   ar
    30     5    30   ar
    31    30    31    1
    32    30    32   ar
    33     2    32   ar
    34     1    33    1
    35     1    34    1
    36     1    35    1
    37     3    36    1
    38     4    37    1
    39     6    38    1
    40     9    39    1
    41     9    40    1
    42    10    41    1
    43    10    42    1
    44    13    43    1
    45    14    44    1
    46    17    45    1
    47    20    46    1
    48    20    47    1
    49    23    48    1
    50    24    49    1
    51    28    50    1
    52    28    51    1
    53    28    52    1
    54    29    53    1
    55    31    54    1
    56    31    55    1
    57    31    56    1
    58    32    57    1
