REMARK  10 active torsions:
REMARK  status: ('A' for Active; 'I' for Inactive)
REMARK    1  A    between atoms: O_2  and  C_3 
REMARK    2  A    between atoms: C_5  and  O_6 
REMARK    3  A    between atoms: C_8  and  C_9 
REMARK       I    between atoms: C_9  and  N_11 
REMARK    4  A    between atoms: N_11  and  N_12 
REMARK    5  A    between atoms: N_12  and  C_13 
REMARK    6  A    between atoms: C_13  and  N_15 
REMARK    7  A    between atoms: N_15  and  C_16 
REMARK    8  A    between atoms: C_16  and  C_17 
REMARK    9  A    between atoms: C_17  and  C_18 
REMARK   10  A    between atoms: C_22  and  O_23 
ROOT
ATOM      1  C   UNL d   1       5.705  -3.911   3.010  0.00  0.00     0.273 C 
ATOM      2  O   UNL d   1       6.701  -3.716   3.678  0.00  0.00    -0.266 OA
ATOM      3  N   UNL d   1       5.252  -5.221   3.045  0.00  0.00    -0.264 N 
ATOM      4  H   UNL d   1       4.379  -5.583   2.686  0.00  0.00     0.190 HD
ENDROOT
BRANCH   1   5
ATOM      5  C   UNL d   1       4.926  -2.843   2.210  0.00  0.00     0.069 C 
ATOM      6  C   UNL d   1       5.309  -1.498   2.012  0.00  0.00     0.086 C 
ATOM      7  C   UNL d   1       4.384  -0.573   1.418  0.00  0.00     0.077 C 
ATOM      8  C   UNL d   1       3.135  -0.943   0.864  0.00  0.00     0.104 C 
ATOM      9  C   UNL d   1       2.800  -2.299   0.980  0.00  0.00     0.102 C 
ATOM     10  C   UNL d   1       3.687  -3.199   1.645  0.00  0.00     0.059 C 
BRANCH   6  11
ATOM     11  O   UNL d   1       6.530  -0.888   2.221  0.00  0.00    -0.355 OA
ATOM     12  C   UNL d   1       7.625  -1.697   2.618  0.00  0.00     0.210 C 
ENDBRANCH   6  11
BRANCH   8  13
ATOM     13  O   UNL d   1       2.596   0.029   0.045  0.00  0.00    -0.353 OA
ATOM     14  C   UNL d   1       1.242   0.485   0.099  0.00  0.00     0.210 C 
ENDBRANCH   8  13
BRANCH   9  15
ATOM     15  O   UNL d   1       1.727  -3.020   0.512  0.00  0.00    -0.353 OA
ATOM     16  C   UNL d   1       0.693  -2.281  -0.074  0.00  0.00     0.210 C 
ENDBRANCH   9  15
ENDBRANCH   1   5
BRANCH   3  17
ATOM     17  N   UNL d   1       6.042  -6.128   3.820  0.00  0.00    -0.274 N 
ATOM     18  H   UNL d   1       6.889  -5.721   4.221  0.00  0.00     0.189 HD
BRANCH  17  19
ATOM     19  C   UNL d   1       5.625  -7.425   4.002  0.00  0.00     0.186 C 
ATOM     20  S   UNL d   1       4.183  -7.977   3.324  0.00  0.00    -0.040 SA
BRANCH  19  21
ATOM     21  N   UNL d   1       6.481  -8.202   4.770  0.00  0.00    -0.366 N 
ATOM     22  H   UNL d   1       7.353  -7.817   5.115  0.00  0.00     0.161 HD
BRANCH  21  23
ATOM     23  C   UNL d   1       6.201  -9.609   5.012  0.00  0.00     0.122 C 
BRANCH  23  24
ATOM     24  C   UNL d   1       7.235 -10.374   5.829  0.00  0.00     0.023 C 
BRANCH  24  25
ATOM     25  C   UNL d   1       6.815 -11.851   6.014  0.00  0.00    -0.021 C 
ATOM     26  C   UNL d   1       6.663 -12.577   4.673  0.00  0.00     0.009 C 
ATOM     27  C   UNL d   1       7.843 -12.590   6.871  0.00  0.00     0.009 C 
ENDBRANCH  24  25
ENDBRANCH  23  24
ENDBRANCH  21  23
ENDBRANCH  19  21
ENDBRANCH  17  19
ENDBRANCH   3  17
TORSDOF 10
