@<TRIPOS>MOLECULE
*****
 53 56 0 0 0
SMALL
GASTEIGER

@<TRIPOS>ATOM
      1 O           9.4467   -0.2572    6.6824 O.2     0  UNK0       -0.2749
      2 C           8.6754   -0.4659    7.6060 C.2     0  UNK0        0.2235
      3 C           7.1374   -0.2457    7.4842 C.3     0  UNK0        0.0725
      4 S           6.5613   -0.1725    5.7089 S.3     0  UNK0       -0.1207
      5 C           6.0493    1.5420    5.4675 C.3     0  UNK0        0.1171
      6 N           5.0280    1.9072    6.4373 N.3     0  UNK0       -0.2318
      7 N           5.6236    2.6854    7.5075 N.3     0  UNK0       -0.2259
      8 C           7.0514    2.9733    7.2700 C.3     0  UNK0        0.1351
      9 N           7.5749    4.2190    7.7386 N.pl3   0  UNK0       -0.3192
     10 C           7.8217    4.3712    9.1046 C.ar    0  UNK0        0.0316
     11 C           7.4434    3.4252   10.0791 C.ar    0  UNK0       -0.0406
     12 C           7.5559    3.6781   11.4462 C.ar    0  UNK0       -0.0573
     13 C           8.0512    4.8997   11.8710 C.ar    0  UNK0       -0.0263
     14 C           8.4330    5.8424   10.9240 C.ar    0  UNK0        0.1251
     15 F           8.9024    7.0277   11.3353 F       0  UNK0       -0.2054
     16 C           8.3212    5.5913    9.5580 C.ar    0  UNK0       -0.0055
     17 S           7.3562    2.7510    5.5293 S.3     0  UNK0       -0.0911
     18 N           9.0200   -1.1703    8.7532 N.am    1  TRP1       -0.3064
     19 CA         10.2668   -1.9914    8.8698 C.3     1  TRP1        0.0666
     20 CB         10.0625   -3.5053    8.5344 C.3     1  TRP1       -0.0019
     21 CG          9.0990   -3.9035    7.4243 C.ar    1  TRP1       -0.0203
     22 CD1         8.3010   -3.1366    6.6451 C.ar    1  TRP1        0.0060
     23 NE1         7.6397   -3.8078    5.6856 N.ar    1  TRP1       -0.3604
     24 CE2         7.8060   -5.1207    5.9536 C.ar    1  TRP1        0.0467
     25 CZ2         7.1801   -6.1847    5.3347 C.ar    1  TRP1       -0.0378
     26 CH2         7.4999   -7.4345    5.8376 C.ar    1  TRP1       -0.0598
     27 CZ3         8.4125   -7.5899    6.8879 C.ar    1  TRP1       -0.0611
     28 CE3         9.0426   -6.4949    7.4836 C.ar    1  TRP1       -0.0523
     29 CD2         8.7211   -5.2213    7.0132 C.ar    1  TRP1        0.0029
     30 C          10.9233   -1.8395   10.2966 C.2     1  TRP1        0.0623
     31 O          11.2005   -2.8999   10.9248 O.co2   1  TRP1       -0.5479
     32 OXT        11.0388   -0.6401   10.6935 O.co2   1  TRP1       -0.5479
     33 H           6.8343    0.5726    8.1141 H       0  UNK0        0.0472
     34 H           6.6016   -1.1104    7.8965 H       0  UNK0        0.0472
     35 H           5.5997    1.5917    4.4707 H       0  UNK0        0.0707
     36 H           4.5384    1.0649    6.7413 H       0  UNK0        0.1427
     37 H           5.5003    2.2909    8.4369 H       0  UNK0        0.1435
     38 H           7.6891    2.2024    7.7059 H       0  UNK0        0.0801
     39 H           8.2465    4.6291    7.1015 H       0  UNK0        0.1484
     40 H           7.0660    2.4443    9.8150 H       0  UNK0        0.0636
     41 H           7.2603    2.9147   12.1616 H       0  UNK0        0.0619
     42 H           8.1482    5.1164   12.9280 H       0  UNK0        0.0646
     43 H           8.6068    6.3655    8.8542 H       0  UNK0        0.0665
     44 H           8.4532   -1.1490    9.5867 H       1  TRP1        0.1494
     45 HA         10.9924   -1.5892    8.1515 H       1  TRP1        0.0563
     46 HB1        11.0515   -3.9097    8.2634 H       1  TRP1        0.0335
     47 HB2         9.7611   -4.0634    9.4306 H       1  TRP1        0.0335
     48 HD1         8.0934   -2.1173    6.6014 H       1  TRP1        0.0810
     49 HE1         7.0363   -3.3718    5.0057 H       1  TRP1        0.1653
     50 HZ2         6.4718   -6.0221    4.5308 H       1  TRP1        0.0638
     51 HH2         7.0191   -8.2991    5.3986 H       1  TRP1        0.0618
     52 HZ3         8.6351   -8.5804    7.2639 H       1  TRP1        0.0618
     53 HE3         9.7313   -6.6041    8.3154 H       1  TRP1        0.0624
@<TRIPOS>UNITY_ATOM_ATTR
32 1
charge -1
@<TRIPOS>BOND
     1     1     2    2
     2     2     3    1
     3     3     4    1
     4     5     6    1
     5     6     7    1
     6     7     8    1
     7     9    10    1
     8    10    11   ar
     9    11    12   ar
    10    12    13   ar
    11    13    14   ar
    12    14    15    1
    13    14    16   ar
    14    10    16   ar
    15     8    17    1
    16     5    17    1
    17     2    18   am
    18    20    21    1
    19    21    22   ar
    20    22    23   ar
    21    23    24   ar
    22    24    25   ar
    23    25    26   ar
    24    26    27   ar
    25    27    28   ar
    26    28    29   ar
    27    21    29   ar
    28    24    29   ar
    29    19    30    1
    30    30    31   ar
    31    30    32   ar
    32     8     9    1
    33    19    20    1
    34    19    18    1
    35     5     4    1
    36     3    33    1
    37     3    34    1
    38     5    35    1
    39     6    36    1
    40     7    37    1
    41     8    38    1
    42     9    39    1
    43    11    40    1
    44    12    41    1
    45    13    42    1
    46    16    43    1
    47    18    44    1
    48    19    45    1
    49    20    46    1
    50    20    47    1
    51    22    48    1
    52    23    49    1
    53    25    50    1
    54    26    51    1
    55    27    52    1
    56    28    53    1
