@<TRIPOS>MOLECULE
*****
 54 56 0 0 0
SMALL
GASTEIGER

@<TRIPOS>ATOM
      1 O           1.6381    0.9572    1.0231 O.2     1  UNL1       -0.2698
      2 C           2.6734    0.4381    0.6055 C.2     1  UNL1        0.2499
      3 N           3.1737   -0.7438    1.1723 N.am    1  UNL1       -0.2636
      4 C           2.4528   -1.5441    2.1279 C.2     1  UNL1        0.1411
      5 S           0.9673   -1.1739    2.8494 S.2     1  UNL1       -0.0182
      6 N           3.0839   -2.7989    2.3280 N.am    1  UNL1       -0.2960
      7 C           2.4093   -3.9301    2.9190 C.ar    1  UNL1        0.0448
      8 C           2.8658   -4.4357    4.1574 C.ar    1  UNL1       -0.0398
      9 C           2.2845   -5.5771    4.7424 C.ar    1  UNL1       -0.0600
     10 C           1.2061   -6.2018    4.1320 C.ar    1  UNL1       -0.0609
     11 C           0.7411   -5.7096    2.9168 C.ar    1  UNL1       -0.0478
     12 C           1.3325   -4.5890    2.2831 C.ar    1  UNL1        0.0578
     13 C           0.7256   -4.2191    0.9641 C.2     1  UNL1        0.2461
     14 O          -0.3215   -4.8036    0.6378 O.2     1  UNL1       -0.2701
     15 N           1.3308   -3.2752    0.1663 N.am    1  UNL1       -0.3084
     16 C           0.7277   -2.5795   -0.9835 C.3     1  UNL1        0.0234
     17 C          -0.7417   -2.8473   -1.1962 C.3     1  UNL1       -0.0345
     18 C          -1.2431   -2.0754   -2.4089 C.3     1  UNL1       -0.0514
     19 C          -1.1150   -0.5619   -2.2709 C.3     1  UNL1       -0.0529
     20 C           0.3258   -0.2046   -2.0049 C.3     1  UNL1       -0.0514
     21 C           0.8434   -1.0681   -0.8707 C.3     1  UNL1       -0.0345
     22 C           3.2793    1.1746   -0.5700 C.ar    1  UNL1        0.0499
     23 C           4.2607    0.8137   -1.5002 C.ar    1  UNL1        0.0281
     24 C           4.8666    1.8530   -2.2654 C.ar    1  UNL1        0.2803
     25 N           6.1619    1.6081   -2.9286 N.pl3   1  UNL1        0.0798
     26 O           6.5919    0.4484   -2.9295 O.2     1  UNL1        0.0414
     27 O           6.7705    2.5900   -3.3762 O.co2   1  UNL1       -0.5760
     28 C           4.3922    3.1802   -2.2378 C.ar    1  UNL1        0.0926
     29 C           3.2927    3.4670   -1.4443 C.ar    1  UNL1        0.2803
     30 N           2.8181    4.8387   -1.2338 N.pl3   1  UNL1        0.0798
     31 O           3.4296    5.7453   -1.8074 O.2     1  UNL1        0.0414
     32 O           1.8636    5.0063   -0.4615 O.co2   1  UNL1       -0.5760
     33 C           2.7272    2.4663   -0.6732 C.ar    1  UNL1        0.0281
     34 H           4.0367   -1.1133    0.8030 H       1  UNL1        0.1568
     35 H           4.0850   -2.7743    2.4822 H       1  UNL1        0.1539
     36 H           3.6300   -3.9170    4.7324 H       1  UNL1        0.0636
     37 H           2.6612   -5.9801    5.6817 H       1  UNL1        0.0618
     38 H           0.7184   -7.0604    4.5917 H       1  UNL1        0.0618
     39 H          -0.1009   -6.2197    2.4469 H       1  UNL1        0.0626
     40 H           2.2610   -2.9960    0.4437 H       1  UNL1        0.1493
     41 H           1.3396   -2.8725   -1.8425 H       1  UNL1        0.0498
     42 H          -1.3014   -2.5587   -0.2938 H       1  UNL1        0.0283
     43 H          -0.8860   -3.9124   -1.3737 H       1  UNL1        0.0283
     44 H          -2.2822   -2.3460   -2.5864 H       1  UNL1        0.0266
     45 H          -0.6401   -2.3916   -3.2681 H       1  UNL1        0.0266
     46 H          -1.7373   -0.1934   -1.4449 H       1  UNL1        0.0265
     47 H          -1.4497   -0.0606   -3.1837 H       1  UNL1        0.0265
     48 H           0.4081    0.8626   -1.7524 H       1  UNL1        0.0266
     49 H           0.9533   -0.3626   -2.8884 H       1  UNL1        0.0266
     50 H           0.3242   -0.7308    0.0335 H       1  UNL1        0.0283
     51 H           1.9035   -0.9079   -0.8704 H       1  UNL1        0.0283
     52 H           4.5752   -0.2187   -1.6494 H       1  UNL1        0.0693
     53 H           4.8926    3.9788   -2.7835 H       1  UNL1        0.0754
     54 H           1.8505    2.7214   -0.0755 H       1  UNL1        0.0693
@<TRIPOS>UNITY_ATOM_ATTR
25 1
charge 1
27 1
charge -1
30 1
charge 1
32 1
charge -1
@<TRIPOS>BOND
     1     1     2    2
     2     2     3   am
     3     3     4    1
     4     4     5    2
     5     4     6    1
     6     6     7    1
     7     7     8   ar
     8     8     9   ar
     9     9    10   ar
    10    10    11   ar
    11    11    12   ar
    12     7    12   ar
    13    12    13    1
    14    13    14    2
    15    13    15   am
    16    15    16    1
    17    16    17    1
    18    17    18    1
    19    18    19    1
    20    19    20    1
    21    20    21    1
    22    16    21    1
    23     2    22    1
    24    22    23   ar
    25    23    24   ar
    26    24    25    1
    27    25    26    2
    28    25    27    1
    29    24    28   ar
    30    28    29   ar
    31    29    30    1
    32    30    31    2
    33    30    32    1
    34    29    33   ar
    35    22    33   ar
    36     3    34    1
    37     6    35    1
    38     8    36    1
    39     9    37    1
    40    10    38    1
    41    11    39    1
    42    15    40    1
    43    16    41    1
    44    17    42    1
    45    17    43    1
    46    18    44    1
    47    18    45    1
    48    19    46    1
    49    19    47    1
    50    20    48    1
    51    20    49    1
    52    21    50    1
    53    21    51    1
    54    23    52    1
    55    28    53    1
    56    33    54    1
