@<TRIPOS>MOLECULE
*****
 67 70 0 0 0
SMALL
GASTEIGER

@<TRIPOS>ATOM
      1 O           0.9334   -0.0746    0.0621 O.2     1  UNL1       -0.2738
      2 C           2.1684    0.0009   -0.0235 C.2     1  UNL1        0.2343
      3 C           2.8670    1.0511   -0.8997 C.3     1  UNL1        0.0861
      4 N           1.9638    1.9819   -1.5616 N.pl3   1  UNL1       -0.3354
      5 C           2.4826    2.9287   -2.4260 C.ar    1  UNL1        0.0277
      6 C           2.0347    4.2519   -2.4211 C.ar    1  UNL1       -0.0374
      7 C           2.5842    5.2026   -3.3039 C.ar    1  UNL1       -0.0182
      8 C           3.6381    4.8612   -4.1577 C.ar    1  UNL1        0.1208
      9 O           4.1646    5.8643   -4.9315 O.3     1  UNL1       -0.4886
     10 C           5.3122    5.5124   -5.7221 C.3     1  UNL1        0.1235
     11 C           5.8381    6.7462   -6.4528 C.3     1  UNL1        0.1235
     12 O           6.9008    6.3668   -7.3423 O.3     1  UNL1       -0.4886
     13 C           7.5338    7.4186   -7.9557 C.ar    1  UNL1        0.1207
     14 C           7.9305    7.2443   -9.2852 C.ar    1  UNL1       -0.0199
     15 C           8.6447    8.2511   -9.9463 C.ar    1  UNL1       -0.0583
     16 C           8.9219    9.4528   -9.2965 C.ar    1  UNL1       -0.0615
     17 C           8.5406    9.6233   -7.9691 C.ar    1  UNL1       -0.0583
     18 C           7.8697    8.6011   -7.2958 C.ar    1  UNL1       -0.0199
     19 C           4.0910    3.5483   -4.1568 C.ar    1  UNL1       -0.0182
     20 C           3.5269    2.6071   -3.2970 C.ar    1  UNL1       -0.0374
     21 N           2.9494   -0.9581    0.5984 N.am    1  UNL1       -0.2841
     22 C           4.3515   -0.9798    0.7209 C.ar    1  UNL1        0.0369
     23 C           5.0532   -2.1809    0.6919 C.ar    1  UNL1       -0.0402
     24 C           6.4461   -2.1697    0.8501 C.ar    1  UNL1       -0.0566
     25 C           7.1386   -0.9586    0.9921 C.ar    1  UNL1       -0.0198
     26 C           6.4371    0.2406    1.0569 C.ar    1  UNL1        0.1224
     27 O           7.1531    1.3931    1.2514 O.3     1  UNL1       -0.4885
     28 C           6.3787    2.6017    1.3528 C.3     1  UNL1        0.1235
     29 C           7.2976    3.7834    1.6311 C.3     1  UNL1        0.1235
     30 O           6.5003    4.9583    1.8093 O.3     1  UNL1       -0.4886
     31 C           7.1948    6.1331    1.9222 C.ar    1  UNL1        0.1207
     32 C           6.6333    7.1057    2.7540 C.ar    1  UNL1       -0.0199
     33 C           7.2023    8.3800    2.8364 C.ar    1  UNL1       -0.0583
     34 C           8.3669    8.6698    2.1288 C.ar    1  UNL1       -0.0615
     35 C           8.9363    7.6999    1.3075 C.ar    1  UNL1       -0.0583
     36 C           8.3441    6.4397    1.1933 C.ar    1  UNL1       -0.0199
     37 C           5.0516    0.1988    0.9627 C.ar    1  UNL1        0.0013
     38 H           3.4829    0.4996   -1.6176 H       1  UNL1        0.0557
     39 H           3.4943    1.6887   -0.2860 H       1  UNL1        0.0557
     40 H           0.9661    1.8825   -1.4080 H       1  UNL1        0.1466
     41 H           1.2798    4.5702   -1.7048 H       1  UNL1        0.0637
     42 H           2.1850    6.2143   -3.3131 H       1  UNL1        0.0655
     43 H           5.0438    4.7479   -6.4601 H       1  UNL1        0.0731
     44 H           6.1156    5.1215   -5.0814 H       1  UNL1        0.0731
     45 H           6.1656    7.4582   -5.6891 H       1  UNL1        0.0731
     46 H           5.0309    7.2069   -7.0324 H       1  UNL1        0.0731
     47 H           7.6810    6.3306   -9.8187 H       1  UNL1        0.0654
     48 H           8.9901    8.0996  -10.9662 H       1  UNL1        0.0619
     49 H           9.4414   10.2524   -9.8183 H       1  UNL1        0.0618
     50 H           8.7787   10.5446   -7.4447 H       1  UNL1        0.0619
     51 H           7.6421    8.7490   -6.2470 H       1  UNL1        0.0654
     52 H           4.8771    3.2040   -4.8177 H       1  UNL1        0.0655
     53 H           3.9057    1.5922   -3.3533 H       1  UNL1        0.0637
     54 H           2.4280   -1.7333    0.9915 H       1  UNL1        0.1549
     55 H           4.5462   -3.1248    0.5083 H       1  UNL1        0.0636
     56 H           6.9976   -3.1075    0.8654 H       1  UNL1        0.0619
     57 H           8.2221   -0.9606    1.0804 H       1  UNL1        0.0654
     58 H           5.6516    2.5318    2.1723 H       1  UNL1        0.0731
     59 H           5.8357    2.7863    0.4143 H       1  UNL1        0.0731
     60 H           7.9908    3.8627    0.7895 H       1  UNL1        0.0731
     61 H           7.8693    3.5947    2.5459 H       1  UNL1        0.0731
     62 H           5.7479    6.8758    3.3411 H       1  UNL1        0.0654
     63 H           6.7300    9.1503    3.4406 H       1  UNL1        0.0619
     64 H           8.8253    9.6520    2.2090 H       1  UNL1        0.0618
     65 H           9.8289    7.9298    0.7319 H       1  UNL1        0.0619
     66 H           8.7867    5.7328    0.5017 H       1  UNL1        0.0654
     67 H           4.4879    1.0948    1.1651 H       1  UNL1        0.0673
@<TRIPOS>BOND
     1     1     2    2
     2     2     3    1
     3     3     4    1
     4     4     5    1
     5     5     6   ar
     6     6     7   ar
     7     7     8   ar
     8     8     9    1
     9     9    10    1
    10    10    11    1
    11    11    12    1
    12    12    13    1
    13    13    14   ar
    14    14    15   ar
    15    15    16   ar
    16    16    17   ar
    17    17    18   ar
    18    13    18   ar
    19     8    19   ar
    20    19    20   ar
    21     5    20   ar
    22     2    21   am
    23    21    22    1
    24    22    23   ar
    25    23    24   ar
    26    24    25   ar
    27    25    26   ar
    28    26    27    1
    29    27    28    1
    30    28    29    1
    31    29    30    1
    32    30    31    1
    33    31    32   ar
    34    32    33   ar
    35    33    34   ar
    36    34    35   ar
    37    35    36   ar
    38    31    36   ar
    39    26    37   ar
    40    22    37   ar
    41     3    38    1
    42     3    39    1
    43     4    40    1
    44     6    41    1
    45     7    42    1
    46    10    43    1
    47    10    44    1
    48    11    45    1
    49    11    46    1
    50    14    47    1
    51    15    48    1
    52    16    49    1
    53    17    50    1
    54    18    51    1
    55    19    52    1
    56    20    53    1
    57    21    54    1
    58    23    55    1
    59    24    56    1
    60    25    57    1
    61    28    58    1
    62    28    59    1
    63    29    60    1
    64    29    61    1
    65    32    62    1
    66    33    63    1
    67    34    64    1
    68    35    65    1
    69    36    66    1
    70    37    67    1
