@<TRIPOS>MOLECULE
*****
 43 43 0 0 0
SMALL
GASTEIGER

@<TRIPOS>ATOM
      1 C           4.8695    3.8077    6.7838 C.3     1  UNL1       -0.0495
      2 C           4.3608    2.7132    5.8641 C.3     1  UNL1        0.0088
      3 N           4.7130    2.9517    4.4880 N.am    1  UNL1       -0.3141
      4 C           4.4569    2.0297    3.4961 C.2     1  UNL1        0.2331
      5 O           3.7747    1.0269    3.7010 O.2     1  UNL1       -0.2738
      6 C           5.0603    2.3763    2.1046 C.3     1  UNL1        0.0969
      7 C           4.5650    1.3437    1.0825 C.3     1  UNL1       -0.0381
      8 N           6.5315    2.3989    2.1742 N.am    1  UNL1       -0.3002
      9 C           7.2420    3.3569    2.8705 C.2     1  UNL1        0.2482
     10 O           6.7199    4.2461    3.5466 O.2     1  UNL1       -0.2701
     11 C           8.7175    3.2823    2.8420 C.ar    1  UNL1        0.0798
     12 C           9.4534    3.3852    4.0569 C.ar    1  UNL1       -0.0248
     13 C          10.8574    3.4076    4.0348 C.ar    1  UNL1        0.0343
     14 N          11.6279    3.4791    5.2438 N.am    1  UNL1       -0.2855
     15 C          13.0226    3.4956    5.2811 C.2     1  UNL1        0.2169
     16 O          13.7505    3.4580    4.2894 O.2     1  UNL1       -0.2755
     17 C          13.6848    3.5610    6.6495 C.3     1  UNL1        0.0215
     18 C          15.2095    3.5734    6.4560 C.3     1  UNL1       -0.0570
     19 C          11.4702    3.3616    2.7754 C.ar    1  UNL1       -0.0370
     20 C          10.7534    3.2713    1.5817 C.ar    1  UNL1       -0.0177
     21 C           9.3744    3.2160    1.6136 C.ar    1  UNL1        0.1291
     22 O           8.6732    3.1192    0.4462 O.3     1  UNL1       -0.5060
     23 H           4.5484    3.6162    7.8123 H       1  UNL1        0.0245
     24 H           4.4886    4.7882    6.4804 H       1  UNL1        0.0245
     25 H           5.9641    3.8579    6.7728 H       1  UNL1        0.0245
     26 H           3.2704    2.6463    5.9151 H       1  UNL1        0.0459
     27 H           4.7763    1.7449    6.1638 H       1  UNL1        0.0459
     28 H           5.3652    3.7084    4.2679 H       1  UNL1        0.1487
     29 H           4.7106    3.3722    1.8042 H       1  UNL1        0.0592
     30 H           4.8975    0.3328    1.3474 H       1  UNL1        0.0252
     31 H           4.9269    1.5568    0.0714 H       1  UNL1        0.0252
     32 H           3.4680    1.3240    1.0473 H       1  UNL1        0.0252
     33 H           7.0467    1.8378    1.5021 H       1  UNL1        0.1498
     34 H           8.9023    3.4494    4.9935 H       1  UNL1        0.0645
     35 H          11.1199    3.5092    6.1215 H       1  UNL1        0.1548
     36 H          13.4026    2.6868    7.2439 H       1  UNL1        0.0356
     37 H          13.3782    4.4723    7.1714 H       1  UNL1        0.0356
     38 H          15.5423    2.6735    5.9218 H       1  UNL1        0.0234
     39 H          15.7461    3.6197    7.4060 H       1  UNL1        0.0234
     40 H          15.5184    4.4348    5.8491 H       1  UNL1        0.0234
     41 H          12.5441    3.3973    2.6520 H       1  UNL1        0.0637
     42 H          11.3145    3.2557    0.6532 H       1  UNL1        0.0655
     43 H           9.2947    3.1474   -0.3020 H       1  UNL1        0.2922
@<TRIPOS>BOND
     1     1     2    1
     2     2     3    1
     3     3     4   am
     4     4     5    2
     5     6     8    1
     6     8     9   am
     7     9    10    2
     8     9    11    1
     9    11    12   ar
    10    12    13   ar
    11    13    14    1
    12    14    15   am
    13    15    16    2
    14    15    17    1
    15    17    18    1
    16    13    19   ar
    17    19    20   ar
    18    20    21   ar
    19    11    21   ar
    20    21    22    1
    21     6     7    1
    22     6     4    1
    23     1    23    1
    24     1    24    1
    25     1    25    1
    26     2    26    1
    27     2    27    1
    28     3    28    1
    29     6    29    1
    30     7    30    1
    31     7    31    1
    32     7    32    1
    33     8    33    1
    34    12    34    1
    35    14    35    1
    36    17    36    1
    37    17    37    1
    38    18    38    1
    39    18    39    1
    40    18    40    1
    41    19    41    1
    42    20    42    1
    43    22    43    1
