@<TRIPOS>MOLECULE
*****
 42 43 0 0 0
SMALL
GASTEIGER

@<TRIPOS>ATOM
      1 C           1.1355    0.0726    0.0248 C.3     1  UNL1        0.0004
      2 N           2.5804    0.0947    0.0688 N.am    1  UNL1       -0.3144
      3 C           3.2436    0.6452    1.1603 C.2     1  UNL1        0.2438
      4 O           2.6785    1.1366    2.1129 O.2     1  UNL1       -0.2702
      5 C           4.7377    0.6438    1.1022 C.ar    1  UNL1        0.0368
      6 C           5.5182    0.4581    2.2542 C.ar    1  UNL1       -0.0479
      7 C           6.9305    0.6394    2.2179 C.ar    1  UNL1       -0.0398
      8 C           7.5802    0.9652    1.0127 C.ar    1  UNL1        0.0335
      9 N           9.0084    1.1448    0.9217 N.am    1  UNL1       -0.2842
     10 C           9.6875    1.4182   -0.2809 C.2     1  UNL1        0.2343
     11 O           9.1775    1.3030   -1.4013 O.2     1  UNL1       -0.2738
     12 C          11.1802    1.8369   -0.2332 C.3     1  UNL1        0.0861
     13 N          11.7330    1.9299   -1.5778 N.pl3   1  UNL1       -0.3345
     14 C          13.0796    1.5735   -1.7651 C.ar    1  UNL1        0.0425
     15 C          13.7064    2.4591   -2.6810 C.ar    1  UNL1       -0.0214
     16 C          15.0356    2.3354   -3.0538 C.ar    1  UNL1        0.0428
     17 CL         15.6855    3.3814   -4.2544 Cl      1  UNL1       -0.0835
     18 C          15.8117    1.3511   -2.4742 C.ar    1  UNL1       -0.0422
     19 C          15.2136    0.4306   -1.5935 C.ar    1  UNL1       -0.0452
     20 C          13.8283    0.4787   -1.2349 C.ar    1  UNL1        0.0285
     21 S          13.4178   -0.9526   -0.1258 S.3     1  UNL1       -0.1268
     22 C          11.6528   -0.9750    0.3994 C.3     1  UNL1       -0.0134
     23 C           6.7600    1.1525   -0.1052 C.ar    1  UNL1       -0.0398
     24 C           5.3734    0.9892   -0.0777 C.ar    1  UNL1       -0.0479
     25 H           0.8089   -0.4502   -0.8789 H       1  UNL1        0.0426
     26 H           0.7557    1.0983    0.0131 H       1  UNL1        0.0426
     27 H           0.7506   -0.4431    0.9086 H       1  UNL1        0.0426
     28 H           3.0940   -0.3599   -0.6722 H       1  UNL1        0.1487
     29 H           5.0217    0.1867    3.1865 H       1  UNL1        0.0626
     30 H           7.4705    0.5568    3.1601 H       1  UNL1        0.0636
     31 H           9.5400    0.9684    1.7687 H       1  UNL1        0.1549
     32 H          11.7950    1.1135    0.2166 H       1  UNL1        0.0557
     33 H          11.3815    2.7010    0.3965 H       1  UNL1        0.0557
     34 H          11.1124    1.5455   -2.3009 H       1  UNL1        0.1466
     35 H          13.1269    3.2975   -3.0682 H       1  UNL1        0.0651
     36 H          16.8714    1.2868   -2.7122 H       1  UNL1        0.0632
     37 H          15.8673   -0.3475   -1.1938 H       1  UNL1        0.0630
     38 H          11.3172   -1.8765    0.9191 H       1  UNL1        0.0344
     39 H          11.0123   -0.8366   -0.4747 H       1  UNL1        0.0344
     40 H          11.4832   -0.2380    1.1954 H       1  UNL1        0.0344
     41 H           7.1546    1.4796   -1.0561 H       1  UNL1        0.0636
     42 H           4.8188    1.1985   -0.9869 H       1  UNL1        0.0626
@<TRIPOS>BOND
     1     1     2    1
     2     2     3   am
     3     3     4    2
     4     3     5    1
     5     5     6   ar
     6     6     7   ar
     7     7     8   ar
     8     8     9    1
     9     9    10   am
    10    10    11    2
    11    10    12    1
    12    12    13    1
    13    13    14    1
    14    14    15   ar
    15    15    16   ar
    16    16    17    1
    17    16    18   ar
    18    18    19   ar
    19    19    20   ar
    20    14    20   ar
    21    20    21    1
    22    21    22    1
    23     8    23   ar
    24    23    24   ar
    25     5    24   ar
    26     1    25    1
    27     1    26    1
    28     1    27    1
    29     2    28    1
    30     6    29    1
    31     7    30    1
    32     9    31    1
    33    12    32    1
    34    12    33    1
    35    13    34    1
    36    15    35    1
    37    18    36    1
    38    19    37    1
    39    22    38    1
    40    22    39    1
    41    22    40    1
    42    23    41    1
    43    24    42    1
