REMARK  7 active torsions:
REMARK  status: ('A' for Active; 'I' for Inactive)
REMARK    1  A    between atoms: C_12  and  N_13 
REMARK       I    between atoms: N_13  and  C_14 
REMARK    2  A    between atoms: C_14  and  C_16 
REMARK    3  A    between atoms: C_16  and  S_17 
REMARK    4  A    between atoms: S_17  and  C_18 
REMARK    5  A    between atoms: C_21  and  C_22 
REMARK    6  A    between atoms: C_22  and  C_23 
REMARK    7  A    between atoms: N_28  and  C_29 
ROOT
ATOM      1  C   UNL d   1       3.857  -3.918  -5.705  0.00  0.00     0.180 C 
ENDROOT
BRANCH   1   2
ATOM      2  C   UNL d   1       4.341  -3.698  -4.265  0.00  0.00     0.229 C 
ATOM      3  N   UNL d   1       3.630  -2.776  -3.526  0.00  0.00    -0.330 N 
ATOM      4  H   UNL d   1       2.801  -2.311  -3.865  0.00  0.00     0.165 HD
ATOM      5  O   UNL d   1       5.333  -4.255  -3.800  0.00  0.00    -0.273 OA
BRANCH   3   6
ATOM      6  C   UNL d   1       4.091  -2.471  -2.201  0.00  0.00     0.264 A 
ATOM      7  O   UNL d   1       3.360  -3.324  -1.296  0.00  0.00    -0.353 OA
ATOM      8  C   UNL d   1       2.710  -2.507  -0.299  0.00  0.00     0.152 A 
ATOM      9  C   UNL d   1       2.993  -1.109  -0.703  0.00  0.00    -0.017 A 
ATOM     10  C   UNL d   1       1.222  -2.809  -0.321  0.00  0.00     0.044 C 
ATOM     11  C   UNL d   1       3.743  -1.107  -1.798  0.00  0.00     0.066 A 
ATOM     12  C   UNL d   1       2.575   0.103   0.034  0.00  0.00     0.105 C 
ATOM     13  C   UNL d   1       4.220   0.132  -2.380  0.00  0.00     0.266 C 
ATOM     14  N   UNL d   1       3.808   1.286  -1.756  0.00  0.00    -0.287 N 
ATOM     15  O   UNL d   1       4.936   0.146  -3.383  0.00  0.00    -0.266 OA
ATOM     16  N   UNL d   1       2.951   1.368  -0.630  0.00  0.00    -0.229 NA
ATOM     17  H   UNL d   1       4.100   2.152  -2.203  0.00  0.00     0.184 HD
ATOM     18  H   UNL d   1       3.427   1.959   0.058  0.00  0.00     0.147 HD
ATOM     19  C   UNL d   1       3.224   0.079   1.417  0.00  0.00     0.033 C 
ENDBRANCH   3   6
ENDBRANCH   1   2
BRANCH   1  20
ATOM     20  S   UNL d   1       5.012  -5.075  -6.571  0.00  0.00    -0.118 SA
BRANCH  20  21
ATOM     21  C   UNL d   1       4.351  -5.291  -8.255  0.00  0.00     0.244 C 
ATOM     22  N   UNL d   1       4.889  -6.525  -8.827  0.00  0.00    -0.183 NA
ATOM     23  N   UNL d   1       6.107  -6.338  -9.421  0.00  0.00    -0.185 NA
ATOM     24  H   UNL d   1       4.822  -7.354  -8.242  0.00  0.00     0.152 HD
ATOM     25  C   UNL d   1       6.168  -5.067  -9.695  0.00  0.00     0.123 C 
ATOM     26  N   UNL d   1       4.993  -4.375  -9.206  0.00  0.00    -0.336 N 
BRANCH  25  27
ATOM     27  C   UNL d   1       7.300  -4.386 -10.440  0.00  0.00     0.126 C 
BRANCH  27  28
ATOM     28  C   UNL d   1       8.395  -5.373 -10.753  0.00  0.00    -0.011 A 
ATOM     29  C   UNL d   1       8.298  -6.489 -11.563  0.00  0.00     0.015 A 
ATOM     30  C   UNL d   1       9.458  -7.308 -11.512  0.00  0.00     0.008 A 
ATOM     31  C   UNL d   1      10.445  -6.752 -10.730  0.00  0.00     0.050 A 
ATOM     32  S   UNL d   1       9.957  -5.251 -10.057  0.00  0.00    -0.106 SA
ENDBRANCH  27  28
ENDBRANCH  25  27
BRANCH  26  33
ATOM     33  C   UNL d   1       4.444  -3.132  -9.750  0.00  0.00     0.088 C 
ATOM     34  C   UNL d   1       3.083  -3.316 -10.453  0.00  0.00     0.025 C 
ATOM     35  C   UNL d   1       2.480  -1.960 -10.868  0.00  0.00     0.002 C 
ATOM     36  C   UNL d   1       2.365  -0.995  -9.689  0.00  0.00     0.000 C 
ATOM     37  C   UNL d   1       3.720  -0.806  -9.020  0.00  0.00     0.002 C 
ATOM     38  C   UNL d   1       4.293  -2.147  -8.607  0.00  0.00     0.025 C 
ENDBRANCH  26  33
ENDBRANCH  20  21
ENDBRANCH   1  20
TORSDOF 7
