REMARK  8 active torsions:
REMARK  status: ('A' for Active; 'I' for Inactive)
REMARK    1  A    between atoms: C_2  and  C_3 
REMARK       I    between atoms: C_3  and  N_5 
REMARK    2  A    between atoms: N_5  and  C_6 
REMARK    3  A    between atoms: C_10  and  N_11 
REMARK    4  A    between atoms: N_11  and  C_12 
REMARK    5  A    between atoms: C_12  and  C_13 
REMARK       I    between atoms: C_13  and  N_15 
REMARK    6  A    between atoms: N_15  and  C_16 
REMARK    7  A    between atoms: C_19  and  N_20 
REMARK       I    between atoms: N_20  and  C_21 
REMARK    8  A    between atoms: C_21  and  C_23 
ROOT
ATOM      1  C   UNL d   1       2.976   7.242  -3.972  0.00  0.00     0.239 C 
ATOM      2  O   UNL d   1       3.691   7.771  -4.820  0.00  0.00    -0.271 OA
ATOM      3  N   UNL d   1       1.867   7.824  -3.333  0.00  0.00    -0.326 N 
ATOM      4  H   UNL d   1       1.474   7.402  -2.499  0.00  0.00     0.169 HD
ENDROOT
BRANCH   3   5
ATOM      5  C   UNL d   1       1.442   9.110  -3.684  0.00  0.00     0.034 A 
ATOM      6  C   UNL d   1       0.993  10.033  -2.736  0.00  0.00     0.032 A 
ATOM      7  C   UNL d   1       0.599  11.320  -3.150  0.00  0.00     0.032 A 
ATOM      8  C   UNL d   1       0.715  11.688  -4.496  0.00  0.00     0.035 A 
ATOM      9  C   UNL d   1       1.224  10.759  -5.402  0.00  0.00     0.032 A 
ATOM     10  C   UNL d   1       1.501   9.467  -5.019  0.00  0.00     0.032 A 
BRANCH   8  11
ATOM     11  N   UNL d   1       0.329  12.980  -4.923  0.00  0.00    -0.323 N 
ATOM     12  C   UNL d   1       0.339  13.456  -6.228  0.00  0.00     0.256 C 
ATOM     13  O   UNL d   1       0.801  14.578  -6.471  0.00  0.00    -0.267 OA
ATOM     14  H   UNL d   1       0.323  13.708  -4.218  0.00  0.00     0.169 HD
BRANCH  12  15
ATOM     15  C   UNL d   1      -0.304  12.657  -7.327  0.00  0.00     0.032 C 
ATOM     16  C   UNL d   1      -0.170  13.043  -8.663  0.00  0.00     0.017 C 
ATOM     17  C   UNL d   1      -0.735  12.257  -9.676  0.00  0.00     0.002 C 
ATOM     18  C   UNL d   1      -1.379  11.053  -9.369  0.00  0.00     0.007 C 
ATOM     19  C   UNL d   1      -1.515  10.653  -8.044  0.00  0.00    -0.061 C 
ATOM     20  C   UNL d   1      -2.091   9.328  -7.645  0.00  0.00     0.048 C 
ATOM     21  C   UNL d   1      -1.052  11.504  -7.041  0.00  0.00     0.023 C 
ENDBRANCH  12  15
ENDBRANCH   8  11
ENDBRANCH   3   5
BRANCH   1  22
ATOM     22  C   UNL d   1       3.272   5.868  -3.454  0.00  0.00     0.223 C 
BRANCH  22  23
ATOM     23  N   UNL d   1       4.444   5.224  -4.016  0.00  0.00    -0.381 N 
ATOM     24  H   UNL d   1       4.941   5.763  -4.721  0.00  0.00     0.160 HD
BRANCH  23  25
ATOM     25  C   UNL d   1       4.879   3.951  -3.667  0.00  0.00     0.036 A 
ATOM     26  C   UNL d   1       6.038   3.472  -4.319  0.00  0.00     0.030 A 
ATOM     27  C   UNL d   1       6.591   2.220  -4.028  0.00  0.00     0.005 A 
ATOM     28  C   UNL d   1       6.001   1.404  -3.064  0.00  0.00     0.030 A 
ATOM     29  C   UNL d   1       4.836   1.823  -2.411  0.00  0.00     0.043 A 
ATOM     30  C   UNL d   1       4.274   3.108  -2.694  0.00  0.00    -0.009 A 
ATOM     31  C   UNL d   1       3.081   3.503  -1.863  0.00  0.00     0.053 C 
BRANCH  29  32
ATOM     32  N   UNL d   1       4.294   0.977  -1.392  0.00  0.00    -0.327 N 
ATOM     33  C   UNL d   1       2.943   0.666  -1.310  0.00  0.00     0.221 C 
ATOM     34  O   UNL d   1       2.125   0.903  -2.199  0.00  0.00    -0.273 OA
ATOM     35  H   UNL d   1       4.942   0.364  -0.914  0.00  0.00     0.169 HD
BRANCH  33  36
ATOM     36  C   UNL d   1       2.499  -0.067  -0.059  0.00  0.00     0.098 C 
ATOM     37  C   UNL d   1       0.969  -0.076   0.004  0.00  0.00     0.014 C 
ENDBRANCH  33  36
ENDBRANCH  29  32
ENDBRANCH  23  25
ENDBRANCH  22  23
ENDBRANCH   1  22
TORSDOF 8
