@<TRIPOS>MOLECULE
*****
 43 43 0 0 0
SMALL
GASTEIGER

@<TRIPOS>ATOM
      1 C           0.9933    0.0534    0.0664 C.3     1  UNL1       -0.0626
      2 C           2.5269    0.0527    0.0957 C.3     1  UNL1       -0.0453
      3 C           3.0022    1.1472    1.0538 C.3     1  UNL1       -0.0626
      4 C           3.0732   -1.3434    0.4948 C.3     1  UNL1       -0.0350
      5 C           4.6125   -1.4157    0.5016 C.3     1  UNL1        0.0133
      6 N           5.1706   -2.7198    0.8693 N.am    1  UNL1       -0.2982
      7 C           6.5405   -2.9078    0.9536 C.2     1  UNL1        0.3160
      8 O           7.3553   -2.0200    0.6976 O.2     1  UNL1       -0.2513
      9 N           6.9354   -4.1784    1.3441 N.am    1  UNL1       -0.2180
     10 N           8.3374   -4.4936    1.4420 N.am    1  UNL1       -0.2297
     11 C           8.7404   -5.7699    1.8112 C.2     1  UNL1        0.2530
     12 O           7.9411   -6.6661    2.0885 O.2     1  UNL1       -0.2693
     13 C          10.2312   -5.9994    1.8619 C.2     1  UNL1        0.0022
     14 C          10.7655   -7.1972    2.1930 C.2     1  UNL1       -0.0496
     15 C          12.2180   -7.4853    2.3257 C.ar    1  UNL1       -0.0245
     16 C          12.7642   -8.7105    1.8954 C.ar    1  UNL1       -0.0482
     17 C          14.1183   -9.0268    2.1222 C.ar    1  UNL1        0.0161
     18 C          14.9565   -8.0842    2.7281 C.ar    1  UNL1        0.2732
     19 N          16.4018   -8.3397    2.8396 N.pl3   1  UNL1        0.0796
     20 O          16.8340   -9.4176    2.4073 O.2     1  UNL1        0.0414
     21 O          17.1080   -7.4490    3.3355 O.co2   1  UNL1       -0.5760
     22 C          14.4295   -6.8697    3.1779 C.ar    1  UNL1        0.0161
     23 C          13.0689   -6.5852    2.9850 C.ar    1  UNL1       -0.0482
     24 H           0.6081    1.0350   -0.2359 H       1  UNL1        0.0232
     25 H           0.5794   -0.1748    1.0547 H       1  UNL1        0.0232
     26 H           0.6094   -0.6859   -0.6435 H       1  UNL1        0.0232
     27 H           2.8811    0.2976   -0.9144 H       1  UNL1        0.0296
     28 H           2.6710    0.9372    2.0764 H       1  UNL1        0.0232
     29 H           2.6069    2.1261    0.7621 H       1  UNL1        0.0232
     30 H           4.0916    1.2341    1.0575 H       1  UNL1        0.0232
     31 H           2.6765   -2.0911   -0.2043 H       1  UNL1        0.0283
     32 H           2.6857   -1.6102    1.4860 H       1  UNL1        0.0283
     33 H           5.0203   -0.6906    1.2125 H       1  UNL1        0.0462
     34 H           4.9945   -1.1523   -0.4916 H       1  UNL1        0.0462
     35 H           4.5398   -3.4610    1.1359 H       1  UNL1        0.1503
     36 H           6.2901   -4.9297    1.5668 H       1  UNL1        0.1744
     37 H           8.9719   -3.7324    1.2056 H       1  UNL1        0.1731
     38 H          10.8719   -5.1592    1.6245 H       1  UNL1        0.0670
     39 H          10.1137   -8.0404    2.4258 H       1  UNL1        0.0625
     40 H          12.1503   -9.4347    1.3607 H       1  UNL1        0.0626
     41 H          14.5021  -10.0007    1.8191 H       1  UNL1        0.0685
     42 H          15.0563   -6.1361    3.6814 H       1  UNL1        0.0685
     43 H          12.6793   -5.6447    3.3666 H       1  UNL1        0.0626
@<TRIPOS>UNITY_ATOM_ATTR
19 1
charge 1
21 1
charge -1
@<TRIPOS>BOND
     1     1     2    1
     2     2     3    1
     3     2     4    1
     4     4     5    1
     5     5     6    1
     6     6     7   am
     7     7     8    2
     8     7     9   am
     9     9    10    1
    10    10    11   am
    11    11    12    2
    12    11    13    1
    13    13    14    2
    14    14    15    1
    15    15    16   ar
    16    16    17   ar
    17    17    18   ar
    18    18    19    1
    19    19    20    2
    20    19    21    1
    21    18    22   ar
    22    22    23   ar
    23    15    23   ar
    24     1    24    1
    25     1    25    1
    26     1    26    1
    27     2    27    1
    28     3    28    1
    29     3    29    1
    30     3    30    1
    31     4    31    1
    32     4    32    1
    33     5    33    1
    34     5    34    1
    35     6    35    1
    36     9    36    1
    37    10    37    1
    38    13    38    1
    39    14    39    1
    40    16    40    1
    41    17    41    1
    42    22    42    1
    43    23    43    1
