@<TRIPOS>MOLECULE
*****
 50 51 0 0 0
SMALL
GASTEIGER

@<TRIPOS>ATOM
      1 C           1.0156    0.0710    0.0600 C.3     1  UNL1       -0.0653
      2 C           2.5370    0.0769    0.0655 C.3     1  UNL1       -0.0559
      3 C           3.0884    1.1130    1.0464 C.3     1  UNL1       -0.0519
      4 C           4.6278    1.1241    1.0569 C.3     1  UNL1       -0.0374
      5 C           5.1621    2.1671    2.0443 C.3     1  UNL1        0.0107
      6 N           6.6334    2.2642    2.1355 N.am    1  UNL1       -0.3255
      7 C           7.2966    3.1554    2.9794 C.2     1  UNL1        0.1468
      8 S           6.5019    4.2332    4.0001 S.2     1  UNL1       -0.0174
      9 N           8.6891    3.0949    2.9193 N.am    1  UNL1       -0.2458
     10 N           9.5017    3.9617    3.7459 N.am    1  UNL1       -0.2322
     11 C          10.8897    3.8997    3.6853 C.2     1  UNL1        0.2693
     12 O          11.4494    3.1075    2.9164 O.2     1  UNL1       -0.2704
     13 C          11.6718    4.8692    4.6182 C.3     1  UNL1        0.1947
     14 O          13.0756    4.6299    4.4502 O.2     1  UNL1       -0.3840
     15 N          13.8773    5.5324    5.1874 N.2     1  UNL1       -0.0889
     16 C          15.1561    5.2961    5.0142 C.2     1  UNL1        0.0842
     17 C          16.1670    6.1300    5.7929 C.3     1  UNL1       -0.0186
     18 C          15.7365    4.2689    4.0867 C.ar    1  UNL1        0.0028
     19 C          15.2417    4.1570    2.7688 C.ar    1  UNL1       -0.0491
     20 C          15.7151    3.1657    1.9028 C.ar    1  UNL1       -0.0155
     21 C          16.6931    2.3192    2.3738 C.ar    1  UNL1        0.1663
     22 C          17.2027    2.4420    3.6455 C.ar    1  UNL1        0.1668
     23 C          16.7574    3.4115    4.5241 C.ar    1  UNL1       -0.0072
     24 O          18.1491    1.5001    3.9130 O.3     1  UNL1       -0.4526
     25 C          18.1099    0.7221    2.6968 C.3     1  UNL1        0.2332
     26 O          17.2557    1.2913    1.6840 O.3     1  UNL1       -0.4526
     27 H           0.6396   -0.6756   -0.6468 H       1  UNL1        0.0230
     28 H           0.6213    1.0483   -0.2365 H       1  UNL1        0.0230
     29 H           0.6213   -0.1715    1.0521 H       1  UNL1        0.0230
     30 H           2.8990    0.2925   -0.9463 H       1  UNL1        0.0263
     31 H           2.8990   -0.9216    0.3362 H       1  UNL1        0.0263
     32 H           2.7097    0.8949    2.0533 H       1  UNL1        0.0266
     33 H           2.7097    2.1065    0.7736 H       1  UNL1        0.0266
     34 H           4.9948    1.3409    0.0472 H       1  UNL1        0.0280
     35 H           4.9948    0.1277    1.3286 H       1  UNL1        0.0280
     36 H           4.7805    1.9354    3.0456 H       1  UNL1        0.0462
     37 H           4.7801    3.1542    1.7583 H       1  UNL1        0.0462
     38 H           7.1735    1.6419    1.5478 H       1  UNL1        0.1478
     39 H           9.2084    2.4551    2.3193 H       1  UNL1        0.1718
     40 H           8.9878    4.5991    4.3520 H       1  UNL1        0.1729
     41 H          11.3991    4.6808    5.6623 H       1  UNL1        0.0823
     42 H          11.4349    5.9062    4.3523 H       1  UNL1        0.0823
     43 H          15.6631    6.8450    6.4489 H       1  UNL1        0.0294
     44 H          16.8083    6.6863    5.1003 H       1  UNL1        0.0294
     45 H          16.8032    5.4965    6.4191 H       1  UNL1        0.0294
     46 H          14.4598    4.8290    2.4214 H       1  UNL1        0.0625
     47 H          15.3066    3.0540    0.9051 H       1  UNL1        0.0655
     48 H          17.1721    3.4615    5.5233 H       1  UNL1        0.0662
     49 H          17.7447   -0.2845    2.9353 H       1  UNL1        0.1166
     50 H          19.1269    0.6378    2.2971 H       1  UNL1        0.1166
@<TRIPOS>BOND
     1     1     2    1
     2     2     3    1
     3     3     4    1
     4     4     5    1
     5     5     6    1
     6     6     7    1
     7     7     8    2
     8     7     9    1
     9     9    10    1
    10    10    11   am
    11    11    12    2
    12    11    13    1
    13    13    14    1
    14    14    15    1
    15    15    16    2
    16    16    17    1
    17    16    18    1
    18    18    19   ar
    19    19    20   ar
    20    20    21   ar
    21    21    22   ar
    22    22    23   ar
    23    18    23   ar
    24    22    24    1
    25    24    25    1
    26    25    26    1
    27    21    26    1
    28     1    27    1
    29     1    28    1
    30     1    29    1
    31     2    30    1
    32     2    31    1
    33     3    32    1
    34     3    33    1
    35     4    34    1
    36     4    35    1
    37     5    36    1
    38     5    37    1
    39     6    38    1
    40     9    39    1
    41    10    40    1
    42    13    41    1
    43    13    42    1
    44    17    43    1
    45    17    44    1
    46    17    45    1
    47    19    46    1
    48    20    47    1
    49    23    48    1
    50    25    49    1
    51    25    50    1
