@<TRIPOS>MOLECULE
*****
 60 63 0 0 0
SMALL
GASTEIGER

@<TRIPOS>ATOM
      1 C           3.2135   -1.0221    0.2042 C.3     1  UNL1       -0.0424
      2 C           2.6406    0.3453    0.0268 C.3     1  UNL1        0.0458
      3 N           1.1760    0.4515   -0.0307 N.am    1  UNL1       -0.3047
      4 C           0.4551    0.8981    1.0593 C.2     1  UNL1        0.2463
      5 O           0.9668    1.4309    2.0392 O.2     1  UNL1       -0.2701
      6 C          -1.0161    0.6771    1.0497 C.ar    1  UNL1        0.0579
      7 C          -1.7922    1.7720    1.5138 C.ar    1  UNL1       -0.0478
      8 C          -3.1685    1.6584    1.7055 C.ar    1  UNL1       -0.0609
      9 C          -3.8008    0.4766    1.3420 C.ar    1  UNL1       -0.0600
     10 C          -3.0411   -0.6190    0.8648 C.ar    1  UNL1       -0.0397
     11 C          -1.6264   -0.5569    0.7182 C.ar    1  UNL1        0.0456
     12 N          -0.9075   -1.7353    0.2012 N.am    1  UNL1       -0.2820
     13 C           0.4220   -2.0769    0.5674 C.2     1  UNL1        0.2550
     14 O           0.8715   -1.6158    1.6175 O.2     1  UNL1       -0.2717
     15 C           1.3284   -3.2106   -0.3308 C.3     1  UNL1        0.1683
     16 O           2.9809   -3.4374   -0.3897 O.3     1  UNL1       -0.4549
     17 C           3.7556   -4.2336   -1.3246 C.2     1  UNL1        0.3135
     18 O           3.1072   -5.0929   -1.9394 O.2     1  UNL1       -0.2504
     19 C           5.4845   -3.9472   -1.6548 C.3     1  UNL1        0.0894
     20 C           6.8810   -5.0366   -2.6770 C.ar    1  UNL1        0.0799
     21 N           7.4572   -4.3411   -1.6776 N.ar    1  UNL1       -0.1748
     22 N           8.2337   -5.0834   -0.9189 N.ar    1  UNL1       -0.2425
     23 C           9.4513   -4.8825   -1.4428 C.ar    1  UNL1        0.2725
     24 O          10.1268   -3.8747   -1.6554 O.2     1  UNL1       -0.2658
     25 C           9.6186   -5.9716   -2.3002 C.ar    1  UNL1        0.0496
     26 C          10.9962   -6.5728   -2.0766 C.ar    1  UNL1       -0.0487
     27 C          11.5714   -7.5522   -2.8267 C.ar    1  UNL1       -0.0610
     28 C          10.6699   -7.9022   -3.8040 C.ar    1  UNL1       -0.0611
     29 C           9.1587   -7.2136   -3.9814 C.ar    1  UNL1       -0.0521
     30 C           8.4103   -6.1205   -3.1006 C.ar    1  UNL1        0.0108
     31 C           3.1571    0.8274   -1.2982 C.ar    1  UNL1       -0.0275
     32 C           3.8112    0.0516   -2.2856 C.ar    1  UNL1       -0.0568
     33 C           4.3009    0.6594   -3.4216 C.ar    1  UNL1       -0.0614
     34 C           3.9949    1.9954   -3.6429 C.ar    1  UNL1       -0.0617
     35 C           3.2896    2.7435   -2.6996 C.ar    1  UNL1       -0.0614
     36 C           2.8900    2.1651   -1.5225 C.ar    1  UNL1       -0.0568
     37 H           4.3060   -1.0929    0.1756 H       1  UNL1        0.0251
     38 H           2.8452   -1.5160   -0.6884 H       1  UNL1        0.0251
     39 H           2.9250   -1.5450    1.1094 H       1  UNL1        0.0251
     40 H           3.0164    0.9263    0.8706 H       1  UNL1        0.0545
     41 H           0.6800    0.0227   -0.8013 H       1  UNL1        0.1496
     42 H          -1.3089    2.7253    1.7316 H       1  UNL1        0.0626
     43 H          -3.7354    2.4799    2.1443 H       1  UNL1        0.0618
     44 H          -4.8879    0.4165    1.4285 H       1  UNL1        0.0618
     45 H          -3.5957   -1.5323    0.6598 H       1  UNL1        0.0636
     46 H          -1.5162   -2.5082   -0.0429 H       1  UNL1        0.1549
     47 H           1.0070   -3.1037   -1.3737 H       1  UNL1        0.0796
     48 H           0.9456   -4.1009    0.1606 H       1  UNL1        0.0796
     49 H           5.8452   -3.6816   -0.6203 H       1  UNL1        0.0443
     50 H           5.5119   -2.9138   -2.0803 H       1  UNL1        0.0443
     51 H           7.8830   -6.0554   -0.9889 H       1  UNL1        0.1921
     52 H          11.5631   -6.2064   -1.2192 H       1  UNL1        0.0625
     53 H          12.5890   -7.9378   -2.6380 H       1  UNL1        0.0618
     54 H          11.0876   -8.7217   -4.4391 H       1  UNL1        0.0618
     55 H           8.8057   -7.7015   -4.9041 H       1  UNL1        0.0624
     56 H           3.9648   -1.0251   -2.2166 H       1  UNL1        0.0621
     57 H           4.9129    0.0918   -4.1165 H       1  UNL1        0.0618
     58 H           4.3010    2.4608   -4.5686 H       1  UNL1        0.0618
     59 H           3.0531    3.7859   -2.8517 H       1  UNL1        0.0618
     60 H           2.3286    2.7133   -0.7682 H       1  UNL1        0.0621
@<TRIPOS>BOND
     1     3     4   am
     2     4     5    2
     3     4     6    1
     4     6     7   ar
     5     7     8   ar
     6     8     9   ar
     7     9    10   ar
     8    10    11   ar
     9     6    11   ar
    10    11    12    1
    11    12    13   am
    12    13    14    2
    13    13    15    1
    14    15    16    1
    15    16    17    1
    16    17    18    2
    17    17    19    1
    18    19    20    1
    19    20    21   ar
    20    21    22   ar
    21    22    23   ar
    22    23    24    2
    23    23    25   ar
    24    25    26   ar
    25    26    27   ar
    26    27    28   ar
    27    28    29   ar
    28    29    30   ar
    29    20    30   ar
    30    25    30   ar
    31     2    31    1
    32    31    32   ar
    33    32    33   ar
    34    33    34   ar
    35    34    35   ar
    36    35    36   ar
    37    31    36   ar
    38     2     3    1
    39     2     1    1
    40     1    37    1
    41     1    38    1
    42     1    39    1
    43     2    40    1
    44     3    41    1
    45     7    42    1
    46     8    43    1
    47     9    44    1
    48    10    45    1
    49    12    46    1
    50    15    47    1
    51    15    48    1
    52    19    49    1
    53    19    50    1
    54    22    51    1
    55    26    52    1
    56    27    53    1
    57    28    54    1
    58    29    55    1
    59    32    56    1
    60    33    57    1
    61    34    58    1
    62    35    59    1
    63    36    60    1
