@<TRIPOS>MOLECULE
*****
 62 63 0 0 0
SMALL
GASTEIGER

@<TRIPOS>ATOM
      1 C           6.9491   -2.0183   -1.6826 C.3     1  UNL1       -0.0652
      2 C           6.4639   -0.7472   -0.9453 C.3     1  UNL1       -0.0538
      3 C           4.9876   -0.4487   -1.1194 C.3     1  UNL1       -0.0256
      4 C           4.5489    1.0433   -0.8991 C.3     1  UNL1        0.1073
      5 C           3.0276    0.6983   -0.7295 C.2     1  UNL1        0.2340
      6 O           2.3438    0.3213   -1.6831 O.2     1  UNL1       -0.2738
      7 N           2.5177    0.7751    0.5834 N.am    1  UNL1       -0.3138
      8 C           1.0648    0.8518    0.7340 C.3     1  UNL1        0.0119
      9 C           0.4813    1.5442    2.0102 C.3     1  UNL1       -0.0350
     10 C          -1.0743    1.6752    2.0484 C.3     1  UNL1       -0.0453
     11 C          -1.7305    0.3768    1.6221 C.3     1  UNL1       -0.0626
     12 C          -1.6510    2.3191    3.2997 C.3     1  UNL1       -0.0626
     13 N           4.9870    2.1161   -2.0147 N.am    1  UNL1       -0.2548
     14 C           4.1224    3.0931   -2.6368 C.2     1  UNL1        0.2614
     15 O           4.5925    3.9796   -3.3695 O.2     1  UNL1       -0.2689
     16 C           2.6896    3.0475   -2.4782 C.ar    1  UNL1        0.1156
     17 S           1.6748    2.8194   -3.8363 S.2     1  UNL1        0.0190
     18 N           0.2350    2.7020   -3.0112 N.ar    1  UNL1       -0.2031
     19 C           0.4647    3.0379   -1.7326 C.ar    1  UNL1        0.1554
     20 C          -0.6437    3.0885   -0.7815 C.2     1  UNL1        0.2624
     21 N          -1.7722    2.3057   -0.9279 N.am    1  UNL1       -0.3240
     22 O          -0.4815    3.7781    0.2644 O.2     1  UNL1       -0.2687
     23 C           1.8934    3.2571   -1.3811 C.ar    1  UNL1        0.0765
     24 N           2.4528    3.4770   -0.1461 N.pl3   1  UNL1       -0.3551
     25 C           6.4525    2.4109   -2.1982 C.ar    1  UNL1        0.0403
     26 C           7.0030    3.6850   -1.9032 C.ar    1  UNL1       -0.0400
     27 C           8.3912    3.9489   -2.0140 C.ar    1  UNL1       -0.0600
     28 C           9.2826    2.9208   -2.2744 C.ar    1  UNL1       -0.0614
     29 C           8.7675    1.6826   -2.6021 C.ar    1  UNL1       -0.0571
     30 C           7.3699    1.4970   -2.7723 C.ar    1  UNL1       -0.0290
     31 C           6.9881    0.2729   -3.5766 C.3     1  UNL1       -0.0379
     32 H           8.0231   -1.9770   -1.9168 H       1  UNL1        0.0230
     33 H           6.4619   -2.2050   -2.6552 H       1  UNL1        0.0230
     34 H           6.7481   -2.9070   -1.0917 H       1  UNL1        0.0230
     35 H           6.8321    0.1205   -1.4004 H       1  UNL1        0.0263
     36 H           6.9888   -0.5250   -0.0138 H       1  UNL1        0.0263
     37 H           4.4434   -1.1467   -0.4712 H       1  UNL1        0.0288
     38 H           4.6375   -0.6769   -2.1381 H       1  UNL1        0.0288
     39 H           4.9378    1.4078    0.0624 H       1  UNL1        0.0600
     40 H           3.0759    1.2839    1.2512 H       1  UNL1        0.1487
     41 H           0.6147   -0.0995    0.4413 H       1  UNL1        0.0462
     42 H           0.7873    1.4728   -0.0848 H       1  UNL1        0.0462
     43 H           0.8935    2.5555    2.1283 H       1  UNL1        0.0283
     44 H           0.8138    0.9970    2.8917 H       1  UNL1        0.0283
     45 H          -1.4435    2.4176    1.3710 H       1  UNL1        0.0296
     46 H          -1.4196   -0.4206    2.2937 H       1  UNL1        0.0232
     47 H          -1.4316    0.1029    0.6030 H       1  UNL1        0.0232
     48 H          -2.8194    0.4563    1.5923 H       1  UNL1        0.0232
     49 H          -1.3871    1.7629    4.1928 H       1  UNL1        0.0232
     50 H          -2.7452    2.3886    3.2104 H       1  UNL1        0.0232
     51 H          -1.2981    3.3578    3.3866 H       1  UNL1        0.0232
     52 H          -2.1448    2.0301   -1.8287 H       1  UNL1        0.1453
     53 H          -2.4341    2.2069   -0.1638 H       1  UNL1        0.1453
     54 H           1.9137    3.2407    0.6820 H       1  UNL1        0.1424
     55 H           3.4352    3.2568    0.0097 H       1  UNL1        0.1424
     56 H           6.3729    4.5287   -1.6267 H       1  UNL1        0.0636
     57 H           8.7824    4.9575   -1.8925 H       1  UNL1        0.0618
     58 H          10.3584    3.0841   -2.2999 H       1  UNL1        0.0618
     59 H           9.4625    0.8585   -2.7694 H       1  UNL1        0.0621
     60 H           7.8467   -0.4125   -3.6254 H       1  UNL1        0.0278
     61 H           6.5342    0.4752   -4.5362 H       1  UNL1        0.0278
     62 H           6.1975   -0.3126   -3.1530 H       1  UNL1        0.0278
@<TRIPOS>BOND
     1     1     2    1
     2     2     3    1
     3     5     6    2
     4     5     7   am
     5     7     8    1
     6     8     9    1
     7     9    10    1
     8    10    11    1
     9    10    12    1
    10     4    13    1
    11    13    14   am
    12    14    15    2
    13    14    16    1
    14    16    17   ar
    15    17    18   ar
    16    18    19   ar
    17    19    20    1
    18    20    21   am
    19    20    22    2
    20    19    23   ar
    21    16    23   ar
    22    23    24    1
    23    13    25    1
    24    25    26   ar
    25    26    27   ar
    26    27    28   ar
    27    28    29   ar
    28    29    30   ar
    29    25    30   ar
    30    30    31    1
    31     4     5    1
    32     4     3    1
    33     1    32    1
    34     1    33    1
    35     1    34    1
    36     2    35    1
    37     2    36    1
    38     3    37    1
    39     3    38    1
    40     4    39    1
    41     7    40    1
    42     8    41    1
    43     8    42    1
    44     9    43    1
    45     9    44    1
    46    10    45    1
    47    11    46    1
    48    11    47    1
    49    11    48    1
    50    12    49    1
    51    12    50    1
    52    12    51    1
    53    21    52    1
    54    21    53    1
    55    24    54    1
    56    24    55    1
    57    26    56    1
    58    27    57    1
    59    28    58    1
    60    29    59    1
    61    31    60    1
    62    31    61    1
    63    31    62    1
