REMARK  11 active torsions:
REMARK  status: ('A' for Active; 'I' for Inactive)
REMARK    1  A    between atoms: C_2  and  C_3 
REMARK    2  A    between atoms: C_3  and  C_4 
REMARK    3  A    between atoms: C_4  and  O_5 
REMARK    4  A    between atoms: O_5  and  C_6 
REMARK    5  A    between atoms: C_11  and  N_12 
REMARK    6  A    between atoms: N_12  and  C_13 
REMARK    7  A    between atoms: C_13  and  C_14 
REMARK       I    between atoms: C_14  and  N_16 
REMARK    8  A    between atoms: N_16  and  C_17 
REMARK    9  A    between atoms: C_21  and  C_22 
REMARK       I    between atoms: C_22  and  N_24 
REMARK   10  A    between atoms: N_24  and  C_25 
REMARK   11  A    between atoms: C_29  and  C_30 
ROOT
ATOM      1  C   UNL d   1       3.422  -1.428   3.579  0.00  0.00     0.035 A 
ATOM      2  C   UNL d   1       2.175  -1.873   4.013  0.00  0.00     0.029 A 
ATOM      3  C   UNL d   1       1.808  -1.656   5.342  0.00  0.00     0.003 A 
ATOM      4  C   UNL d   1       2.687  -1.002   6.212  0.00  0.00     0.017 A 
ATOM      5  C   UNL d   1       3.896  -0.472   5.741  0.00  0.00     0.034 A 
ATOM      6  C   UNL d   1       4.239  -0.681   4.419  0.00  0.00     0.046 A 
ENDROOT
BRANCH   1   7
ATOM      7  N   UNL d   1       3.888  -1.725   2.294  0.00  0.00    -0.326 N 
ATOM      8  C   UNL d   1       5.266  -1.944   2.051  0.00  0.00     0.239 C 
ATOM      9  O   UNL d   1       6.142  -2.022   2.885  0.00  0.00    -0.271 OA
ATOM     10  H   UNL d   1       3.188  -1.921   1.585  0.00  0.00     0.169 HD
BRANCH   8  11
ATOM     11  C   UNL d   1       5.581  -1.911   0.591  0.00  0.00     0.223 C 
BRANCH  11  12
ATOM     12  N   UNL d   1       6.854  -2.345   0.092  0.00  0.00    -0.379 N 
ATOM     13  H   UNL d   1       7.601  -2.221   0.773  0.00  0.00     0.160 HD
BRANCH  12  14
ATOM     14  C   UNL d   1       7.207  -2.124  -1.259  0.00  0.00     0.062 A 
ATOM     15  C   UNL d   1       8.577  -2.403  -1.517  0.00  0.00     0.032 A 
ATOM     16  C   UNL d   1       9.120  -2.456  -2.804  0.00  0.00     0.002 A 
ATOM     17  C   UNL d   1       8.304  -2.225  -3.897  0.00  0.00     0.003 A 
ATOM     18  C   UNL d   1       6.963  -1.896  -3.694  0.00  0.00     0.039 A 
ATOM     19  C   UNL d   1       6.382  -1.868  -2.403  0.00  0.00     0.095 A 
BRANCH  19  20
ATOM     20  O   UNL d   1       4.996  -1.756  -2.509  0.00  0.00    -0.349 OA
BRANCH  20  21
ATOM     21  C   UNL d   1       4.378  -0.726  -1.761  0.00  0.00     0.175 C 
BRANCH  21  22
ATOM     22  C   UNL d   1       2.873  -0.782  -1.550  0.00  0.00     0.026 C 
BRANCH  22  23
ATOM     23  C   UNL d   1       2.479   0.112  -0.346  0.00  0.00    -0.002 C 
ATOM     24  C   UNL d   1       0.989   0.023  -0.111  0.00  0.00     0.005 C 
ENDBRANCH  22  23
ENDBRANCH  21  22
ENDBRANCH  20  21
ENDBRANCH  19  20
ENDBRANCH  12  14
ENDBRANCH  11  12
ENDBRANCH   8  11
ENDBRANCH   1   7
BRANCH   5  25
ATOM     25  C   UNL d   1       4.771   0.301   6.659  0.00  0.00     0.256 C 
ATOM     26  O   UNL d   1       4.415   0.393   7.828  0.00  0.00    -0.267 OA
ATOM     27  N   UNL d   1       5.899   0.926   6.125  0.00  0.00    -0.323 N 
ATOM     28  H   UNL d   1       6.081   0.938   5.133  0.00  0.00     0.169 HD
BRANCH  27  29
ATOM     29  C   UNL d   1       6.857   1.578   6.920  0.00  0.00     0.035 A 
ATOM     30  C   UNL d   1       7.577   2.667   6.423  0.00  0.00     0.029 A 
ATOM     31  C   UNL d   1       8.599   3.233   7.194  0.00  0.00     0.003 A 
ATOM     32  C   UNL d   1       8.883   2.724   8.463  0.00  0.00     0.016 A 
ATOM     33  C   UNL d   1       8.173   1.623   8.955  0.00  0.00     0.050 A 
ATOM     34  C   UNL d   1       7.156   1.070   8.179  0.00  0.00     0.045 A 
BRANCH  33  35
ATOM     35  C   UNL d   1       8.523   0.982  10.267  0.00  0.00     0.417 C 
ATOM     36  F   UNL d   1       9.817   0.558  10.294  0.00  0.00    -0.166 F 
ATOM     37  F   UNL d   1       8.380   1.829  11.321  0.00  0.00    -0.166 F 
ATOM     38  F   UNL d   1       7.772  -0.116  10.561  0.00  0.00    -0.166 F 
ENDBRANCH  33  35
ENDBRANCH  27  29
ENDBRANCH   5  25
TORSDOF 11
