REMARK  9 active torsions:
REMARK  status: ('A' for Active; 'I' for Inactive)
REMARK    1  A    between atoms: C_2  and  C_3 
REMARK       I    between atoms: C_2  and  N_30 
REMARK    2  A    between atoms: C_3  and  S_4 
REMARK    3  A    between atoms: C_5  and  S_4 
REMARK    4  A    between atoms: N_15  and  N_16 
REMARK       I    between atoms: N_16  and  C_17 
REMARK    5  A    between atoms: C_17  and  C_19 
REMARK    6  A    between atoms: C_19  and  C_20 
REMARK    7  A    between atoms: C_20  and  C_21 
REMARK    8  A    between atoms: N_30  and  C_31 
REMARK    9  A    between atoms: C_31  and  C_32 
ROOT
ATOM      1  C   UNL d   1       2.671   1.333   4.006  0.00  0.00     0.274 C 
ATOM      2  N   UNL d   1       2.340   2.710   4.304  0.00  0.00    -0.358 N 
ATOM      3  C   UNL d   1       2.333   3.158   5.617  0.00  0.00     0.046 A 
ATOM      4  C   UNL d   1       2.307   4.520   5.923  0.00  0.00     0.030 A 
ATOM      5  C   UNL d   1       2.377   4.966   7.256  0.00  0.00     0.002 A 
ATOM      6  C   UNL d   1       2.452   4.059   8.309  0.00  0.00     0.001 A 
ATOM      7  C   UNL d   1       2.501   2.708   8.025  0.00  0.00     0.019 A 
ATOM      8  C   UNL d   1       2.476   2.279   6.690  0.00  0.00     0.060 A 
ATOM      9  C   UNL d   1       2.550   0.845   6.421  0.00  0.00     0.277 C 
ATOM     10  O   UNL d   1       2.853   0.123   7.372  0.00  0.00    -0.266 OA
ATOM     11  N   UNL d   1       2.235   0.457   5.117  0.00  0.00    -0.221 N 
ATOM     12  H   UNL d   1       1.896   3.279   3.597  0.00  0.00     0.162 HD
ENDROOT
BRANCH  11  13
ATOM     13  N   UNL d   1       2.032  -0.960   4.821  0.00  0.00    -0.262 N 
ATOM     14  C   UNL d   1       1.499  -1.808   5.791  0.00  0.00     0.236 C 
ATOM     15  O   UNL d   1       1.201  -1.514   6.945  0.00  0.00    -0.272 OA
ATOM     16  H   UNL d   1       1.952  -1.205   3.840  0.00  0.00     0.190 HD
BRANCH  14  17
ATOM     17  C   UNL d   1       1.170  -3.211   5.343  0.00  0.00     0.109 C 
BRANCH  17  18
ATOM     18  C   UNL d   1       0.845  -4.011   6.618  0.00  0.00     0.046 C 
BRANCH  18  19
ATOM     19  C   UNL d   1       0.508  -5.427   6.351  0.00  0.00    -0.050 A 
ATOM     20  C   UNL d   1       1.132  -6.486   6.866  0.00  0.00    -0.006 A 
ATOM     21  C   UNL d   1       2.218  -6.641   7.773  0.00  0.00     0.014 A 
ATOM     22  C   UNL d   1       0.455  -7.641   6.259  0.00  0.00     0.038 A 
ATOM     23  C   UNL d   1       2.633  -7.883   8.056  0.00  0.00     0.001 A 
ATOM     24  C   UNL d   1       2.000  -9.050   7.458  0.00  0.00     0.002 A 
ATOM     25  C   UNL d   1       0.962  -8.982   6.599  0.00  0.00     0.030 A 
ATOM     26  N   UNL d   1      -0.500  -7.291   5.484  0.00  0.00    -0.385 N 
ATOM     27  C   UNL d   1      -0.618  -5.821   5.451  0.00  0.00     0.155 A 
ATOM     28  H   UNL d   1      -1.074  -7.949   4.962  0.00  0.00     0.160 HD
ENDBRANCH  18  19
ENDBRANCH  17  18
ENDBRANCH  14  17
ENDBRANCH  11  13
BRANCH   1  29
ATOM     29  S   UNL d   1       4.474   1.178   3.707  0.00  0.00    -0.112 SA
BRANCH  29  30
ATOM     30  C   UNL d   1       4.779   2.209   2.199  0.00  0.00     0.180 C 
BRANCH  30  31
ATOM     31  C   UNL d   1       6.287   2.228   1.854  0.00  0.00     0.227 C 
ATOM     32  O   UNL d   1       7.155   1.675   2.531  0.00  0.00    -0.273 OA
ATOM     33  N   UNL d   1       6.701   2.885   0.724  0.00  0.00    -0.356 N 
ATOM     34  H   UNL d   1       7.708   2.850   0.579  0.00  0.00     0.162 HD
BRANCH  33  35
ATOM     35  C   UNL d   1       5.901   3.606  -0.244  0.00  0.00     0.161 C 
BRANCH  35  36
ATOM     36  C   UNL d   1       6.750   4.177  -1.352  0.00  0.00    -0.041 A 
ATOM     37  C   UNL d   1       6.882   3.508  -2.579  0.00  0.00     0.009 A 
ATOM     38  C   UNL d   1       7.833   3.924  -3.514  0.00  0.00     0.001 A 
ATOM     39  C   UNL d   1       8.582   5.076  -3.283  0.00  0.00     0.000 A 
ATOM     40  C   UNL d   1       8.359   5.827  -2.132  0.00  0.00     0.001 A 
ATOM     41  C   UNL d   1       7.484   5.356  -1.150  0.00  0.00     0.009 A 
ENDBRANCH  35  36
ENDBRANCH  33  35
ENDBRANCH  30  31
ENDBRANCH  29  30
ENDBRANCH   1  29
TORSDOF 9
