REMARK  14 active torsions:
REMARK  status: ('A' for Active; 'I' for Inactive)
REMARK    1  A    between atoms: C_2  and  N_3 
REMARK    2  A    between atoms: N_3  and  C_4 
REMARK    3  A    between atoms: N_3  and  C_6 
REMARK    4  A    between atoms: C_6  and  C_7 
REMARK    5  A    between atoms: C_7  and  N_8 
REMARK       I    between atoms: N_8  and  C_9 
REMARK    6  A    between atoms: C_9  and  C_11 
REMARK    7  A    between atoms: C_14  and  N_15 
REMARK    8  A    between atoms: N_15  and  C_16 
REMARK    9  A    between atoms: C_16  and  N_18 
REMARK       I    between atoms: N_18  and  C_19 
REMARK   10  A    between atoms: C_19  and  C_21 
REMARK   11  A    between atoms: C_21  and  C_22 
REMARK   12  A    between atoms: C_22  and  C_23 
REMARK   13  A    between atoms: C_23  and  O_24 
REMARK   14  A    between atoms: O_24  and  C_25 
ROOT
ATOM      1  N   UNL d   1      12.988   1.678  -3.698  0.00  0.00    -0.333 N 
ATOM      2  H   UNL d   1      13.512   2.502  -3.979  0.00  0.00     0.168 HD
ENDROOT
BRANCH   1   3
ATOM      3  C   UNL d   1      11.528   1.855  -3.718  0.00  0.00     0.034 A 
ATOM      4  C   UNL d   1      10.890   3.054  -4.073  0.00  0.00     0.030 A 
ATOM      5  C   UNL d   1       9.467   3.189  -3.953  0.00  0.00     0.019 A 
ATOM      6  C   UNL d   1       8.668   2.121  -3.515  0.00  0.00     0.032 A 
ATOM      7  C   UNL d   1       9.275   0.934  -3.214  0.00  0.00     0.019 A 
ATOM      8  C   UNL d   1      10.644   0.829  -3.372  0.00  0.00     0.030 A 
BRANCH   6   9
ATOM      9  C   UNL d   1       7.185   2.127  -3.527  0.00  0.00     0.251 C 
ATOM     10  N   UNL d   1       6.565   1.425  -2.493  0.00  0.00    -0.355 N 
ATOM     11  H   UNL d   1       7.128   1.063  -1.731  0.00  0.00     0.162 HD
ATOM     12  O   UNL d   1       6.570   2.676  -4.416  0.00  0.00    -0.268 OA
BRANCH  10  13
ATOM     13  C   UNL d   1       5.121   1.398  -2.444  0.00  0.00     0.150 C 
BRANCH  13  14
ATOM     14  C   UNL d   1       4.548   0.740  -1.181  0.00  0.00     0.254 C 
BRANCH  14  15
ATOM     15  N   UNL d   1       3.005   0.775  -1.125  0.00  0.00    -0.070 N 
ATOM     16  H   UNL d   1       2.666   0.264  -1.954  0.00  0.00     0.279 HD
BRANCH  15  17
ATOM     17  C   UNL d   1       2.558   0.007   0.117  0.00  0.00     0.230 C 
ATOM     18  C   UNL d   1       1.060  -0.212   0.194  0.00  0.00     0.034 C 
ENDBRANCH  15  17
BRANCH  15  19
ATOM     19  C   UNL d   1       2.513   2.214  -1.203  0.00  0.00     0.230 C 
ATOM     20  C   UNL d   1       1.017   2.360  -1.361  0.00  0.00     0.034 C 
ENDBRANCH  15  19
ENDBRANCH  14  15
ENDBRANCH  13  14
ENDBRANCH  10  13
ENDBRANCH   6   9
ENDBRANCH   1   3
BRANCH   1  21
ATOM     21  C   UNL d   1      13.695   0.534  -3.200  0.00  0.00     0.178 C 
ATOM     22  S   UNL d   1      12.959  -0.841  -2.533  0.00  0.00    -0.040 SA
BRANCH  21  23
ATOM     23  N   UNL d   1      15.112   0.586  -3.263  0.00  0.00    -0.304 N 
ATOM     24  C   UNL d   1      15.914  -0.502  -2.860  0.00  0.00     0.223 C 
ATOM     25  O   UNL d   1      15.476  -1.589  -2.478  0.00  0.00    -0.273 OA
ATOM     26  H   UNL d   1      15.578   1.431  -3.564  0.00  0.00     0.171 HD
BRANCH  24  27
ATOM     27  C   UNL d   1      17.416  -0.419  -2.888  0.00  0.00     0.105 C 
BRANCH  27  28
ATOM     28  C   UNL d   1      17.947  -1.813  -2.416  0.00  0.00     0.036 C 
BRANCH  28  29
ATOM     29  C   UNL d   1      19.454  -1.865  -2.407  0.00  0.00     0.176 C 
BRANCH  29  30
ATOM     30  O   UNL d   1      19.907  -3.136  -1.946  0.00  0.00    -0.349 OA
BRANCH  30  31
ATOM     31  C   UNL d   1      21.264  -3.270  -1.768  0.00  0.00     0.090 A 
ATOM     32  C   UNL d   1      21.773  -4.528  -2.146  0.00  0.00     0.040 A 
ATOM     33  C   UNL d   1      23.111  -4.867  -1.903  0.00  0.00     0.026 A 
ATOM     34  C   UNL d   1      23.966  -3.925  -1.346  0.00  0.00     0.035 A 
ATOM     35 CL   UNL d   1      25.637  -4.273  -1.143  0.00  0.00    -0.084 Cl
ATOM     36  C   UNL d   1      23.483  -2.680  -0.970  0.00  0.00     0.050 A 
ATOM     37  C   UNL d   1      22.138  -2.351  -1.160  0.00  0.00     0.069 A 
ATOM     38 CL   UNL d   1      21.718  -0.796  -0.530  0.00  0.00    -0.081 Cl
ENDBRANCH  30  31
ENDBRANCH  29  30
ENDBRANCH  28  29
ENDBRANCH  27  28
ENDBRANCH  24  27
ENDBRANCH  21  23
ENDBRANCH   1  21
TORSDOF 14
