@<TRIPOS>MOLECULE
*****
 65 66 0 0 0
SMALL
GASTEIGER

@<TRIPOS>ATOM
      1 C           6.8205    2.0880    2.0883 C.3     1  UNL1       -0.0652
      2 C           6.2817    0.7855    1.6251 C.3     1  UNL1       -0.0538
      3 C           4.8500    0.4662    1.3974 C.3     1  UNL1       -0.0256
      4 C           4.4980   -0.9761    0.8671 C.3     1  UNL1        0.1073
      5 C           2.9743   -0.6664    0.6008 C.2     1  UNL1        0.2340
      6 O           2.2516   -0.2780    1.5239 O.2     1  UNL1       -0.2738
      7 N           2.4799   -0.8397   -0.7062 N.am    1  UNL1       -0.3138
      8 C           1.0173   -0.9412   -0.8663 C.3     1  UNL1        0.0119
      9 C           0.4083   -1.7311   -2.0925 C.3     1  UNL1       -0.0350
     10 C          -1.1590   -1.8643   -2.1327 C.3     1  UNL1       -0.0453
     11 C          -1.8026   -0.5366   -1.7910 C.3     1  UNL1       -0.0626
     12 C          -1.7358   -2.5924   -3.3377 C.3     1  UNL1       -0.0626
     13 N           4.9216   -2.2487    1.6885 N.am    1  UNL1       -0.2551
     14 C           4.0501   -3.0409    2.5402 C.2     1  UNL1        0.2614
     15 O           4.5105   -3.8673    3.3322 O.2     1  UNL1       -0.2689
     16 C           2.6120   -2.9568    2.4248 C.ar    1  UNL1        0.1156
     17 S           1.6075   -2.7118    3.7838 S.2     1  UNL1        0.0190
     18 N           0.1613   -2.5967    2.9647 N.ar    1  UNL1       -0.2031
     19 C           0.3827   -2.9502    1.7003 C.ar    1  UNL1        0.1554
     20 C          -0.7167   -3.0475    0.7211 C.2     1  UNL1        0.2624
     21 N          -1.8555   -2.2224    0.8491 N.am    1  UNL1       -0.3240
     22 O          -0.5560   -3.7512   -0.2345 O.2     1  UNL1       -0.2687
     23 C           1.8111   -3.1982    1.3380 C.ar    1  UNL1        0.0765
     24 N           2.3882   -3.4668    0.1178 N.pl3   1  UNL1       -0.3551
     25 C           6.3726   -2.5853    1.8266 C.ar    1  UNL1        0.0374
     26 C           6.9309   -3.8403    1.9943 C.ar    1  UNL1       -0.0400
     27 C           8.3221   -3.9996    2.3210 C.ar    1  UNL1       -0.0568
     28 C           9.1792   -2.9007    2.5354 C.ar    1  UNL1       -0.0475
     29 C          10.6788   -2.9897    2.6678 C.3     1  UNL1       -0.0305
     30 C          11.4018   -1.6288    2.7407 C.3     1  UNL1       -0.0613
     31 C           8.6125   -1.6715    2.4237 C.ar    1  UNL1       -0.0568
     32 C           7.3598   -1.6358    1.8467 C.ar    1  UNL1       -0.0400
     33 H           7.9095    1.9551    2.1940 H       1  UNL1        0.0230
     34 H           6.4102    2.3122    3.0707 H       1  UNL1        0.0230
     35 H           6.6197    2.8593    1.3532 H       1  UNL1        0.0230
     36 H           6.5099    0.1828    2.5016 H       1  UNL1        0.0263
     37 H           6.7887    0.6139    0.6680 H       1  UNL1        0.0263
     38 H           4.4946    1.1917    0.6531 H       1  UNL1        0.0288
     39 H           4.3272    0.6371    2.3401 H       1  UNL1        0.0288
     40 H           4.9601   -1.1488   -0.1164 H       1  UNL1        0.0600
     41 H           3.0525   -1.3971   -1.3193 H       1  UNL1        0.1487
     42 H           0.5452    0.0106   -0.6097 H       1  UNL1        0.0462
     43 H           0.7569   -1.5089   -0.0081 H       1  UNL1        0.0462
     44 H           0.8135   -2.7505   -2.1585 H       1  UNL1        0.0283
     45 H           0.7379   -1.2436   -3.0084 H       1  UNL1        0.0283
     46 H          -1.5626   -2.5639   -1.4277 H       1  UNL1        0.0296
     47 H          -1.4850    0.2070   -2.5170 H       1  UNL1        0.0232
     48 H          -1.4924   -0.1959   -0.7959 H       1  UNL1        0.0232
     49 H          -2.8923   -0.6013   -1.7469 H       1  UNL1        0.0232
     50 H          -1.4675   -2.0955   -4.2619 H       1  UNL1        0.0232
     51 H          -2.8315   -2.6568   -3.2454 H       1  UNL1        0.0232
     52 H          -1.3868   -3.6369   -3.3507 H       1  UNL1        0.0232
     53 H          -2.2974   -2.0242    1.7289 H       1  UNL1        0.1453
     54 H          -2.5058   -2.1740    0.0696 H       1  UNL1        0.1453
     55 H           1.8665   -3.2547   -0.7262 H       1  UNL1        0.1424
     56 H           3.3672   -3.2182   -0.0319 H       1  UNL1        0.1424
     57 H           6.3357   -4.7198    1.7686 H       1  UNL1        0.0636
     58 H           8.7262   -5.0033    2.3958 H       1  UNL1        0.0621
     59 H          11.0606   -3.5096    1.7804 H       1  UNL1        0.0311
     60 H          10.9167   -3.5714    3.5594 H       1  UNL1        0.0311
     61 H          11.2291   -1.0287    1.8347 H       1  UNL1        0.0233
     62 H          12.4811   -1.7542    2.8424 H       1  UNL1        0.0233
     63 H          11.0508   -1.0394    3.5975 H       1  UNL1        0.0233
     64 H           9.1558   -0.7318    2.4995 H       1  UNL1        0.0621
     65 H           7.3679   -0.9001    1.0862 H       1  UNL1        0.0636
@<TRIPOS>BOND
     1     1     2    1
     2     2     3    1
     3     5     6    2
     4     5     7   am
     5     7     8    1
     6     8     9    1
     7     9    10    1
     8    10    11    1
     9    10    12    1
    10     4    13    1
    11    13    14   am
    12    14    15    2
    13    14    16    1
    14    16    17   ar
    15    17    18   ar
    16    18    19   ar
    17    19    20    1
    18    20    21   am
    19    20    22    2
    20    19    23   ar
    21    16    23   ar
    22    23    24    1
    23    13    25    1
    24    25    26   ar
    25    26    27   ar
    26    27    28   ar
    27    28    29    1
    28    29    30    1
    29    28    31   ar
    30    31    32   ar
    31    25    32   ar
    32     4     5    1
    33     4     3    1
    34     1    33    1
    35     1    34    1
    36     1    35    1
    37     2    36    1
    38     2    37    1
    39     3    38    1
    40     3    39    1
    41     4    40    1
    42     7    41    1
    43     8    42    1
    44     8    43    1
    45     9    44    1
    46     9    45    1
    47    10    46    1
    48    11    47    1
    49    11    48    1
    50    11    49    1
    51    12    50    1
    52    12    51    1
    53    12    52    1
    54    21    53    1
    55    21    54    1
    56    24    55    1
    57    24    56    1
    58    26    57    1
    59    27    58    1
    60    29    59    1
    61    29    60    1
    62    30    61    1
    63    30    62    1
    64    30    63    1
    65    31    64    1
    66    32    65    1
