REMARK  9 active torsions:
REMARK  status: ('A' for Active; 'I' for Inactive)
REMARK    1  A    between atoms: C_2  and  C_3 
REMARK       I    between atoms: C_2  and  N_21 
REMARK    2  A    between atoms: C_3  and  N_4 
REMARK    3  A    between atoms: N_4  and  C_5 
REMARK    4  A    between atoms: C_10  and  C_11 
REMARK       I    between atoms: C_11  and  N_13 
REMARK    5  A    between atoms: N_13  and  C_14 
REMARK    6  A    between atoms: N_21  and  C_22 
REMARK    7  A    between atoms: C_26  and  C_27 
REMARK       I    between atoms: C_27  and  N_29 
REMARK    8  A    between atoms: N_29  and  C_30 
REMARK    9  A    between atoms: C_30  and  C_31 
ROOT
ATOM      1  O   UNL d   1       1.129  -0.117  -0.002  0.00  0.00    -0.271 OA
ATOM      2  C   UNL d   1       2.357  -0.004  -0.036  0.00  0.00     0.239 C 
ATOM      3  N   UNL d   1       3.138  -1.139  -0.196  0.00  0.00    -0.326 N 
ATOM      4  H   UNL d   1       2.609  -1.980  -0.406  0.00  0.00     0.169 HD
ENDROOT
BRANCH   2   5
ATOM      5  C   UNL d   1       3.056   1.374   0.005  0.00  0.00     0.223 C 
BRANCH   5   6
ATOM      6  N   UNL d   1       2.121   2.503   0.040  0.00  0.00    -0.381 N 
ATOM      7  H   UNL d   1       1.157   2.279   0.272  0.00  0.00     0.160 HD
BRANCH   6   8
ATOM      8  C   UNL d   1       2.603   3.798   0.179  0.00  0.00     0.029 A 
ATOM      9  C   UNL d   1       3.690   4.226  -0.584  0.00  0.00     0.031 A 
ATOM     10  C   UNL d   1       4.181   5.524  -0.481  0.00  0.00     0.027 A 
ATOM     11  C   UNL d   1       3.626   6.432   0.422  0.00  0.00     0.049 A 
ATOM     12 CL   UNL d   1       4.390   7.986   0.427  0.00  0.00    -0.083 Cl
ATOM     13  C   UNL d   1       2.548   6.044   1.235  0.00  0.00     0.055 A 
ATOM     14  C   UNL d   1       2.059   4.711   1.102  0.00  0.00     0.048 A 
BRANCH  13  15
ATOM     15  C   UNL d   1       1.859   6.944   2.235  0.00  0.00     0.253 C 
ATOM     16  O   UNL d   1       0.956   6.498   2.937  0.00  0.00    -0.268 OA
ATOM     17  N   UNL d   1       2.280   8.255   2.328  0.00  0.00    -0.352 N 
ATOM     18  H   UNL d   1       3.092   8.539   1.795  0.00  0.00     0.163 HD
BRANCH  17  19
ATOM     19  C   UNL d   1       1.783   9.225   3.300  0.00  0.00     0.084 C 
ATOM     20  C   UNL d   1       2.329   8.907   4.697  0.00  0.00     0.025 C 
ATOM     21  C   UNL d   1       1.922   9.957   5.726  0.00  0.00     0.002 C 
ATOM     22  C   UNL d   1       2.340  11.358   5.294  0.00  0.00     0.000 C 
ATOM     23  C   UNL d   1       1.773  11.692   3.919  0.00  0.00     0.002 C 
ATOM     24  C   UNL d   1       2.186  10.651   2.880  0.00  0.00     0.025 C 
ENDBRANCH  17  19
ENDBRANCH  13  15
ENDBRANCH   6   8
ENDBRANCH   5   6
ENDBRANCH   2   5
BRANCH   3  25
ATOM     25  C   UNL d   1       4.541  -1.245  -0.131  0.00  0.00     0.035 A 
ATOM     26  C   UNL d   1       5.228  -2.125  -0.960  0.00  0.00     0.029 A 
ATOM     27  C   UNL d   1       6.620  -2.243  -0.844  0.00  0.00     0.003 A 
ATOM     28  C   UNL d   1       7.333  -1.451   0.065  0.00  0.00     0.017 A 
ATOM     29  C   UNL d   1       6.654  -0.596   0.927  0.00  0.00     0.034 A 
ATOM     30  C   UNL d   1       5.257  -0.537   0.833  0.00  0.00     0.046 A 
BRANCH  29  31
ATOM     31  C   UNL d   1       7.430   0.193   1.946  0.00  0.00     0.251 C 
ATOM     32  O   UNL d   1       8.653   0.099   2.020  0.00  0.00    -0.268 OA
ATOM     33  N   UNL d   1       6.690   0.996   2.770  0.00  0.00    -0.354 N 
ATOM     34  H   UNL d   1       5.700   0.883   2.745  0.00  0.00     0.162 HD
BRANCH  33  35
ATOM     35  C   UNL d   1       7.217   1.825   3.844  0.00  0.00     0.155 C 
BRANCH  35  36
ATOM     36  C   UNL d   1       6.136   2.644   4.597  0.00  0.00     0.139 C 
ATOM     37  C   UNL d   1       4.690   2.386   4.180  0.00  0.00     0.035 C 
ATOM     38  C   UNL d   1       4.000   3.697   4.402  0.00  0.00     0.029 C 
ATOM     39  C   UNL d   1       5.100   4.690   4.109  0.00  0.00     0.168 C 
ATOM     40  O   UNL d   1       6.350   4.057   4.412  0.00  0.00    -0.384 OA
ENDBRANCH  35  36
ENDBRANCH  33  35
ENDBRANCH  29  31
ENDBRANCH   3  25
TORSDOF 9
