@<TRIPOS>MOLECULE
*****
 68 71 0 0 0
SMALL
GASTEIGER

@<TRIPOS>ATOM
      1 C           1.1545    0.0689    0.0749 C.3     1  UNL1        0.0788
      2 O           2.5820    0.1426    0.1738 O.3     1  UNL1       -0.4951
      3 C           3.2790   -0.9739    0.5287 C.ar    1  UNL1        0.1208
      4 C           4.4706   -0.8830    1.2009 C.ar    1  UNL1       -0.0165
      5 C           5.3069   -2.0305    1.3642 C.ar    1  UNL1       -0.0160
      6 C           4.9529   -3.3251    0.9181 C.ar    1  UNL1        0.1289
      7 O           5.8248   -4.3641    1.1604 O.3     1  UNL1       -0.4946
      8 C           5.7942   -5.7481    0.7113 C.3     1  UNL1        0.0788
      9 C           3.6805   -3.4310    0.4007 C.ar    1  UNL1        0.0466
     10 C           3.0758   -4.7743    0.1361 C.3     1  UNL1        0.0244
     11 C           2.8502   -5.6082    1.5431 C.3     1  UNL1        0.0593
     12 N           3.8862   -5.5286    2.6446 N.am    1  UNL1       -0.3055
     13 C           4.2665   -6.5761    3.4696 C.2     1  UNL1        0.2487
     14 O           3.5395   -7.5783    3.5937 O.2     1  UNL1       -0.2700
     15 C           5.6245   -6.5783    4.1117 C.ar    1  UNL1        0.0916
     16 C           6.2227   -7.7747    4.4873 C.ar    1  UNL1        0.0455
     17 N           7.4404   -7.8958    5.0931 N.ar    1  UNL1       -0.2295
     18 C           8.0986   -6.7572    5.3148 C.ar    1  UNL1        0.1899
     19 S           9.6276   -6.6714    6.1499 S.3     1  UNL1       -0.0813
     20 C          10.0033   -8.3632    6.7335 C.3     1  UNL1        0.0262
     21 C          11.2776   -8.3916    7.5800 C.ar    1  UNL1       -0.0371
     22 C          11.8356   -9.6126    7.9896 C.ar    1  UNL1       -0.0578
     23 C          12.9186   -9.6339    8.8817 C.ar    1  UNL1       -0.0615
     24 C          13.5138   -8.4465    9.3081 C.ar    1  UNL1       -0.0617
     25 C          13.0018   -7.2324    8.8849 C.ar    1  UNL1       -0.0615
     26 C          11.8938   -7.2122    8.0466 C.ar    1  UNL1       -0.0578
     27 N           7.6487   -5.5583    4.9403 N.ar    1  UNL1       -0.2095
     28 C           6.4293   -5.4955    4.3816 C.ar    1  UNL1        0.1456
     29 CL          5.9940   -3.8552    4.1491 Cl      1  UNL1       -0.0611
     30 N           1.7903   -4.6859   -0.7372 N.4     1  UNL1        0.2419
     31 C           0.6111   -4.1981    0.1060 C.3     1  UNL1       -0.0313
     32 C          -0.5930   -3.8990   -0.7423 C.3     1  UNL1       -0.0123
     33 C          -0.2582   -3.0193   -1.9293 C.3     1  UNL1       -0.0434
     34 C           0.7259   -3.7205   -2.8445 C.3     1  UNL1       -0.0123
     35 C           2.0436   -3.9801   -2.1318 C.3     1  UNL1       -0.0313
     36 C           2.9244   -2.2415    0.1647 C.ar    1  UNL1       -0.0079
     37 H           0.7717    0.9907   -0.3761 H       1  UNL1        0.0660
     38 H           0.7075   -0.0682    1.0620 H       1  UNL1        0.0660
     39 H           0.7988   -0.7148   -0.5810 H       1  UNL1        0.0660
     40 H           4.7610    0.0899    1.5879 H       1  UNL1        0.0655
     41 H           6.2555   -1.8692    1.8719 H       1  UNL1        0.0655
     42 H           6.5561   -6.3007    1.2734 H       1  UNL1        0.0660
     43 H           5.9191   -5.8525   -0.3625 H       1  UNL1        0.0660
     44 H           4.9131   -6.3547    0.9340 H       1  UNL1        0.0660
     45 H           3.7532   -5.3119   -0.5372 H       1  UNL1        0.0921
     46 H           2.7287   -6.6631    1.2632 H       1  UNL1        0.0522
     47 H           1.9435   -5.2765    2.0394 H       1  UNL1        0.0522
     48 H           4.5730   -4.7759    2.5924 H       1  UNL1        0.1492
     49 H           5.7372   -8.7329    4.3105 H       1  UNL1        0.0839
     50 H          10.1255   -9.0100    5.8586 H       1  UNL1        0.0429
     51 H           9.1780   -8.7455    7.3471 H       1  UNL1        0.0429
     52 H          11.4338  -10.5600    7.6353 H       1  UNL1        0.0621
     53 H          13.2962  -10.5797    9.2623 H       1  UNL1        0.0618
     54 H          14.3741   -8.4615    9.9702 H       1  UNL1        0.0618
     55 H          13.4343   -6.2914    9.2127 H       1  UNL1        0.0618
     56 H          11.5288   -6.2265    7.7745 H       1  UNL1        0.0621
     57 H           1.5725   -5.6535   -1.0021 H       1  UNL1        0.2040
     58 H           0.8769   -3.3189    0.6981 H       1  UNL1        0.0814
     59 H           0.3780   -4.9725    0.8378 H       1  UNL1        0.0814
     60 H          -1.3432   -3.4080   -0.1131 H       1  UNL1        0.0317
     61 H          -1.0119   -4.8470   -1.0877 H       1  UNL1        0.0317
     62 H           0.1947   -2.0906   -1.6059 H       1  UNL1        0.0269
     63 H          -1.1693   -2.7284   -2.4559 H       1  UNL1        0.0269
     64 H           0.8953   -3.0872   -3.7254 H       1  UNL1        0.0317
     65 H           0.3061   -4.6666   -3.1916 H       1  UNL1        0.0317
     66 H           2.5713   -3.0273   -2.0254 H       1  UNL1        0.0814
     67 H           2.7222   -4.6074   -2.7202 H       1  UNL1        0.0814
     68 H           2.0047   -2.2720   -0.3801 H       1  UNL1        0.0660
@<TRIPOS>UNITY_ATOM_ATTR
30 1
charge 1
@<TRIPOS>BOND
     1     1     2    1
     2     2     3    1
     3     3     4   ar
     4     4     5   ar
     5     5     6   ar
     6     6     7    1
     7     7     8    1
     8     6     9   ar
     9     9    10    1
    10    10    11    1
    11    11    12    1
    12    12    13   am
    13    13    14    2
    14    13    15    1
    15    15    16   ar
    16    16    17   ar
    17    17    18   ar
    18    18    19    1
    19    19    20    1
    20    20    21    1
    21    21    22   ar
    22    22    23   ar
    23    23    24   ar
    24    24    25   ar
    25    25    26   ar
    26    21    26   ar
    27    18    27   ar
    28    27    28   ar
    29    15    28   ar
    30    28    29    1
    31    10    30    1
    32    30    31    1
    33    31    32    1
    34    32    33    1
    35    33    34    1
    36    34    35    1
    37    30    35    1
    38     9    36   ar
    39     3    36   ar
    40     1    37    1
    41     1    38    1
    42     1    39    1
    43     4    40    1
    44     5    41    1
    45     8    42    1
    46     8    43    1
    47     8    44    1
    48    10    45    1
    49    11    46    1
    50    11    47    1
    51    12    48    1
    52    16    49    1
    53    20    50    1
    54    20    51    1
    55    22    52    1
    56    23    53    1
    57    24    54    1
    58    25    55    1
    59    26    56    1
    60    30    57    1
    61    31    58    1
    62    31    59    1
    63    32    60    1
    64    32    61    1
    65    33    62    1
    66    33    63    1
    67    34    64    1
    68    34    65    1
    69    35    66    1
    70    35    67    1
    71    36    68    1
