@<TRIPOS>MOLECULE
*****
 70 75 0 0 0
SMALL
GASTEIGER

@<TRIPOS>ATOM
      1 C           1.1054   -0.2038    0.2789 C.3     1  UNL1        0.0789
      2 O           2.4614    0.0869    0.0222 O.3     1  UNL1       -0.4933
      3 C           3.0188   -0.6786   -0.9757 C.ar    1  UNL1        0.1410
      4 C           4.0662   -1.4966   -0.5023 C.ar    1  UNL1       -0.0181
      5 C           4.8371   -2.2575   -1.3761 C.ar    1  UNL1       -0.0582
      6 C           4.4997   -2.2950   -2.7177 C.ar    1  UNL1       -0.0598
      7 C           3.4444   -1.5084   -3.1869 C.ar    1  UNL1       -0.0371
      8 C           2.7033   -0.6309   -2.3577 C.ar    1  UNL1        0.0723
      9 N           1.7814    0.1769   -3.0213 N.pl3   1  UNL1       -0.3170
     10 C           1.5235    1.5978   -2.8054 C.3     1  UNL1        0.0526
     11 C           0.2556    1.9309   -1.9906 C.3     1  UNL1       -0.0147
     12 N          -0.9976    1.1038   -2.3678 N.4     1  UNL1        0.2486
     13 C          -2.3631    1.2574   -1.2296 C.3     1  UNL1        0.0727
     14 C          -2.4869    2.7289   -0.7015 C.ar    1  UNL1        0.0725
     15 C          -1.4767    3.5510   -0.2777 C.ar    1  UNL1       -0.0383
     16 C          -1.7072    4.9334    0.1772 C.ar    1  UNL1        0.0027
     17 C          -0.8869    6.0770    0.0502 C.ar    1  UNL1       -0.0070
     18 C          -1.4921    7.3295    0.3034 C.ar    1  UNL1        0.1669
     19 C          -2.8537    7.3932    0.2840 C.ar    1  UNL1        0.1682
     20 C          -3.4738    6.3460    0.9296 C.ar    1  UNL1        0.0078
     21 C          -2.9386    5.0949    0.7804 C.ar    1  UNL1        0.0529
     22 N          -3.7864    3.9850    0.9063 N.ar    1  UNL1       -0.3216
     23 C          -3.8156    3.2520   -0.2530 C.ar    1  UNL1        0.2582
     24 O          -4.8896    3.1109   -0.8728 O.2     1  UNL1       -0.2674
     25 O          -3.3032    8.6743    0.4719 O.3     1  UNL1       -0.4525
     26 C          -2.5196    8.8699    1.6371 C.3     1  UNL1        0.2332
     27 O          -1.2020    8.2088    1.4195 O.3     1  UNL1       -0.4526
     28 C          -3.7130    0.4054   -1.6384 C.ar    1  UNL1        0.2048
     29 N          -4.9283    0.9107   -1.8009 N.ar    1  UNL1       -0.1071
     30 N          -5.8109   -0.0924   -2.0878 N.ar    1  UNL1       -0.0228
     31 N          -5.1881   -1.2463   -2.1329 N.ar    1  UNL1       -0.0432
     32 N          -3.9219   -0.9879   -1.7604 N.ar    1  UNL1       -0.2188
     33 C          -3.0100   -2.1261   -1.7571 C.3     1  UNL1        0.0591
     34 C          -3.3713   -3.3145   -0.8865 C.3     1  UNL1       -0.0401
     35 C          -2.7797   -2.5823   -3.2351 C.3     1  UNL1       -0.0401
     36 C          -1.7930   -1.7362   -0.9707 C.3     1  UNL1       -0.0401
     37 C          -0.5059   -0.2996   -2.8478 C.3     1  UNL1       -0.0147
     38 C           0.6989   -0.4800   -3.7322 C.3     1  UNL1        0.0526
     39 H           0.7010    0.4982    1.0152 H       1  UNL1        0.0660
     40 H           0.8620   -1.2375    0.5301 H       1  UNL1        0.0660
     41 H           0.5701    0.0142   -0.6109 H       1  UNL1        0.0660
     42 H           4.2986   -1.5266    0.5614 H       1  UNL1        0.0655
     43 H           5.7059   -2.8031   -1.0147 H       1  UNL1        0.0619
     44 H           5.0726   -2.9076   -3.4103 H       1  UNL1        0.0618
     45 H           3.2457   -1.5315   -4.2574 H       1  UNL1        0.0637
     46 H           1.3067    2.0126   -3.7967 H       1  UNL1        0.0516
     47 H           2.4009    2.1128   -2.4157 H       1  UNL1        0.0516
     48 H           0.0026    2.9743   -2.1739 H       1  UNL1        0.0830
     49 H           0.4559    1.8091   -0.9296 H       1  UNL1        0.0830
     50 H          -1.4131    1.5372   -3.1966 H       1  UNL1        0.2046
     51 H          -1.9946    0.7681   -0.3122 H       1  UNL1        0.0991
     52 H          -0.4661    3.2332   -0.1061 H       1  UNL1        0.0631
     53 H          -0.0148    6.0186   -0.6105 H       1  UNL1        0.0662
     54 H          -4.3072    6.5252    1.5909 H       1  UNL1        0.0676
     55 H          -4.7012    4.2016    1.2873 H       1  UNL1        0.1689
     56 H          -3.1130    8.3943    2.4447 H       1  UNL1        0.1166
     57 H          -2.4774    9.9296    1.9119 H       1  UNL1        0.1166
     58 H          -4.2805   -3.8148   -1.1892 H       1  UNL1        0.0253
     59 H          -3.4608   -2.9838    0.1576 H       1  UNL1        0.0253
     60 H          -2.5288   -4.0254   -0.9226 H       1  UNL1        0.0253
     61 H          -3.6421   -3.1327   -3.6268 H       1  UNL1        0.0253
     62 H          -1.8915   -3.2151   -3.3361 H       1  UNL1        0.0253
     63 H          -2.6835   -1.7614   -3.9616 H       1  UNL1        0.0253
     64 H          -1.8793   -1.5245    0.0982 H       1  UNL1        0.0253
     65 H          -1.6532   -0.7513   -1.2751 H       1  UNL1        0.0253
     66 H          -0.9287   -2.3647   -1.1812 H       1  UNL1        0.0253
     67 H          -1.3329   -0.7695   -3.3178 H       1  UNL1        0.0830
     68 H          -0.1118   -0.8330   -1.9917 H       1  UNL1        0.0830
     69 H           0.4804   -0.0677   -4.7154 H       1  UNL1        0.0516
     70 H           0.8617   -1.5668   -3.8462 H       1  UNL1        0.0516
@<TRIPOS>UNITY_ATOM_ATTR
12 1
charge 1
@<TRIPOS>BOND
     1     1     2    1
     2     2     3    1
     3     3     4   ar
     4     4     5   ar
     5     5     6   ar
     6     6     7   ar
     7     7     8   ar
     8     3     8   ar
     9     8     9    1
    10     9    10    1
    11    10    11    1
    12    11    12    1
    13    12    13    1
    14    13    14    1
    15    14    15   ar
    16    15    16   ar
    17    16    17   ar
    18    17    18   ar
    19    18    19   ar
    20    19    20   ar
    21    20    21   ar
    22    16    21   ar
    23    21    22   ar
    24    22    23   ar
    25    14    23   ar
    26    23    24    2
    27    19    25    1
    28    25    26    1
    29    26    27    1
    30    18    27    1
    31    13    28    1
    32    28    29   ar
    33    29    30   ar
    34    30    31   ar
    35    31    32   ar
    36    28    32   ar
    37    32    33    1
    38    33    34    1
    39    33    35    1
    40    33    36    1
    41    12    37    1
    42    37    38    1
    43     9    38    1
    44     1    39    1
    45     1    40    1
    46     1    41    1
    47     4    42    1
    48     5    43    1
    49     6    44    1
    50     7    45    1
    51    10    46    1
    52    10    47    1
    53    11    48    1
    54    11    49    1
    55    12    50    1
    56    13    51    1
    57    15    52    1
    58    17    53    1
    59    20    54    1
    60    22    55    1
    61    26    56    1
    62    26    57    1
    63    34    58    1
    64    34    59    1
    65    34    60    1
    66    35    61    1
    67    35    62    1
    68    35    63    1
    69    36    64    1
    70    36    65    1
    71    36    66    1
    72    37    67    1
    73    37    68    1
    74    38    69    1
    75    38    70    1
