REMARK  11 active torsions:
REMARK  status: ('A' for Active; 'I' for Inactive)
REMARK    1  A    between atoms: O_2  and  C_3 
REMARK    2  A    between atoms: C_5  and  C_6 
REMARK    3  A    between atoms: C_7  and  C_8 
REMARK       I    between atoms: C_8  and  N_10 
REMARK    4  A    between atoms: N_10  and  N_11 
REMARK    5  A    between atoms: N_11  and  C_12 
REMARK    6  A    between atoms: C_12  and  N_14 
REMARK    7  A    between atoms: N_14  and  C_15 
REMARK    8  A    between atoms: C_15  and  C_16 
REMARK    9  A    between atoms: C_16  and  C_17 
REMARK   10  A    between atoms: C_22  and  O_23 
REMARK   11  A    between atoms: O_23  and  C_24 
ROOT
ATOM      1  C   UNL d   1       0.635  -1.650   0.428  0.00  0.00     0.284 C 
ATOM      2  C   UNL d   1      -0.619  -2.497   0.282  0.00  0.00     0.006 C 
ATOM      3  N   UNL d   1      -1.659  -3.199   0.162  0.00  0.00    -0.099 N 
ENDROOT
BRANCH   1   4
ATOM      4  O   UNL d   1       1.515  -2.294   1.338  0.00  0.00    -0.336 OA
BRANCH   4   5
ATOM      5  C   UNL d   1       2.598  -1.520   1.653  0.00  0.00     0.103 A 
ATOM      6  C   UNL d   1       3.368  -2.085   2.691  0.00  0.00     0.040 A 
ATOM      7  C   UNL d   1       4.584  -1.523   3.084  0.00  0.00     0.014 A 
ATOM      8  C   UNL d   1       5.086  -0.399   2.429  0.00  0.00    -0.033 A 
ATOM      9  C   UNL d   1       4.252   0.217   1.448  0.00  0.00     0.051 A 
ATOM     10  C   UNL d   1       3.013  -0.330   1.026  0.00  0.00     0.102 A 
BRANCH   8  11
ATOM     11  C   UNL d   1       6.491   0.063   2.671  0.00  0.00     0.017 C 
ATOM     12  C   UNL d   1       7.413  -0.519   3.476  0.00  0.00     0.076 C 
BRANCH  12  13
ATOM     13  C   UNL d   1       8.828  -0.019   3.603  0.00  0.00     0.259 C 
ATOM     14  O   UNL d   1       9.237   0.955   2.954  0.00  0.00    -0.267 OA
ATOM     15  N   UNL d   1       9.627  -0.720   4.489  0.00  0.00    -0.264 N 
ATOM     16  H   UNL d   1       9.306  -1.522   5.031  0.00  0.00     0.190 HD
BRANCH  15  17
ATOM     17  N   UNL d   1      10.993  -0.329   4.728  0.00  0.00    -0.274 N 
ATOM     18  H   UNL d   1      11.315   0.476   4.195  0.00  0.00     0.189 HD
BRANCH  17  19
ATOM     19  C   UNL d   1      11.785  -1.024   5.641  0.00  0.00     0.186 C 
ATOM     20  S   UNL d   1      11.199  -2.354   6.494  0.00  0.00    -0.040 SA
BRANCH  19  21
ATOM     21  N   UNL d   1      13.080  -0.523   5.785  0.00  0.00    -0.366 N 
ATOM     22  H   UNL d   1      13.380   0.256   5.215  0.00  0.00     0.161 HD
BRANCH  21  23
ATOM     23  C   UNL d   1      14.083  -1.135   6.673  0.00  0.00     0.122 C 
BRANCH  23  24
ATOM     24  C   UNL d   1      15.472  -0.482   6.679  0.00  0.00     0.023 C 
BRANCH  24  25
ATOM     25  C   UNL d   1      16.452  -1.199   7.645  0.00  0.00    -0.021 C 
ATOM     26  C   UNL d   1      16.656  -2.670   7.272  0.00  0.00     0.009 C 
ATOM     27  C   UNL d   1      17.812  -0.495   7.655  0.00  0.00     0.009 C 
ENDBRANCH  24  25
ENDBRANCH  23  24
ENDBRANCH  21  23
ENDBRANCH  19  21
ENDBRANCH  17  19
ENDBRANCH  15  17
ENDBRANCH  12  13
ENDBRANCH   8  11
BRANCH  10  28
ATOM     28  O   UNL d   1       2.526   0.174  -0.176  0.00  0.00    -0.353 OA
ATOM     29  C   UNL d   1       1.221   0.770  -0.341  0.00  0.00     0.210 C 
ENDBRANCH  10  28
ENDBRANCH   4   5
ENDBRANCH   1   4
TORSDOF 11
