REMARK  7 active torsions:
REMARK  status: ('A' for Active; 'I' for Inactive)
REMARK    1  A    between atoms: C_2  and  C_3 
REMARK    2  A    between atoms: C_6  and  N_7 
REMARK    3  A    between atoms: C_11  and  S_12 
REMARK    4  A    between atoms: S_12  and  N_15 
REMARK    5  A    between atoms: N_15  and  C_16 
REMARK    6  A    between atoms: C_18  and  N_19 
REMARK       I    between atoms: N_19  and  C_20 
REMARK    7  A    between atoms: C_25  and  O_26 
ROOT
ATOM      1  N   UNL d   1      -0.183   0.795  -0.160  0.00  0.00    -0.278 N 
ATOM      2  H   UNL d   1       0.124   0.330  -1.017  0.00  0.00     0.179 HD
ENDROOT
BRANCH   1   3
ATOM      3  S   UNL d   1       0.489   2.374   0.271  0.00  0.00     0.263 S 
ATOM      4  O   UNL d   1       0.175   2.651   1.628  0.00  0.00    -0.200 OA
ATOM      5  O   UNL d   1       0.197   3.388  -0.758  0.00  0.00    -0.200 OA
BRANCH   3   6
ATOM      6  C   UNL d   1       2.341   2.466   0.090  0.00  0.00     0.088 C 
ATOM      7  C   UNL d   1       2.755   3.820  -0.096  0.00  0.00     0.061 C 
ATOM      8  C   UNL d   1       4.092   4.139  -0.318  0.00  0.00     0.104 C 
ATOM      9  C   UNL d   1       5.043   3.127  -0.379  0.00  0.00     0.037 C 
ATOM     10  C   UNL d   1       4.642   1.798  -0.315  0.00  0.00     0.011 C 
ATOM     11  C   UNL d   1       3.319   1.437  -0.012  0.00  0.00    -0.035 C 
BRANCH   8  12
ATOM     12  N   UNL d   1       4.496   5.532  -0.540  0.00  0.00    -0.116 N 
ATOM     13  O   UNL d   1       5.706   5.757  -0.686  0.00  0.00    -0.532 OA
ATOM     14  O   UNL d   1       3.609   6.395  -0.587  0.00  0.00    -0.532 OA
ENDBRANCH   8  12
BRANCH  11  15
ATOM     15  C   UNL d   1       3.203  -0.058   0.217  0.00  0.00     0.035 C 
ATOM     16  C   UNL d   1       1.806  -0.349   0.449  0.00  0.00     0.010 C 
ENDBRANCH  11  15
ENDBRANCH   3   6
ENDBRANCH   1   3
BRANCH   1  17
ATOM     17  C   UNL d   1      -1.487   0.222   0.001  0.00  0.00     0.078 C 
ATOM     18  C   UNL d   1      -1.639  -0.998   0.768  0.00  0.00     0.062 C 
ATOM     19  C   UNL d   1      -2.838  -1.719   0.686  0.00  0.00     0.037 C 
ATOM     20  C   UNL d   1      -3.856  -1.062   0.031  0.00  0.00     0.032 C 
ATOM     21  C   UNL d   1      -3.634  -0.138  -0.959  0.00  0.00     0.041 C 
ATOM     22  C   UNL d   1      -2.413   0.455  -1.032  0.00  0.00     0.095 C 
BRANCH  19  23
ATOM     23  N   UNL d   1      -3.063  -3.029   1.196  0.00  0.00    -0.327 N 
ATOM     24  C   UNL d   1      -4.143  -3.877   0.990  0.00  0.00     0.218 C 
ATOM     25  C   UNL d   1      -5.345  -3.517   0.128  0.00  0.00     0.117 C 
ATOM     26  O   UNL d   1      -4.142  -4.981   1.548  0.00  0.00    -0.274 OA
ATOM     27  H   UNL d   1      -2.323  -3.496   1.717  0.00  0.00     0.169 HD
ENDBRANCH  19  23
BRANCH  22  28
ATOM     28  O   UNL d   1      -2.280   1.132  -2.225  0.00  0.00    -0.354 OA
ATOM     29  C   UNL d   1      -1.251   2.067  -2.195  0.00  0.00     0.210 C 
ENDBRANCH  22  28
ENDBRANCH   1  17
TORSDOF 7
