@<TRIPOS>MOLECULE
*****
 56 57 0 0 0
SMALL
GASTEIGER

@<TRIPOS>ATOM
      1 C           1.0877    0.0604   -0.0076 C.3     1  UNL1       -0.0653
      2 C           2.6108    0.0591   -0.0110 C.3     1  UNL1       -0.0555
      3 C           3.1464   -0.7665   -1.1756 C.3     1  UNL1       -0.0450
      4 C           4.6819   -0.8045   -1.2413 C.3     1  UNL1        0.0243
      5 C           5.1201   -1.6355   -2.4463 C.2     1  UNL1        0.2172
      6 O           4.2893   -2.1616   -3.1859 O.2     1  UNL1       -0.2755
      7 N           6.4936   -1.7864   -2.6089 N.am    1  UNL1       -0.2855
      8 C           7.0278   -2.5770   -3.6630 C.ar    1  UNL1        0.0334
      9 C           8.0702   -3.4741   -3.4313 C.ar    1  UNL1       -0.0398
     10 C           8.5742   -4.2726   -4.4889 C.ar    1  UNL1       -0.0478
     11 C           8.0304   -4.2159   -5.7909 C.ar    1  UNL1        0.0383
     12 C           8.5093   -5.2054   -6.8530 C.2     1  UNL1        0.2601
     13 O           9.3785   -6.0319   -6.5822 O.2     1  UNL1       -0.2687
     14 N           7.9123   -5.1580   -8.1101 N.am    1  UNL1       -0.2311
     15 N           8.2534   -6.0817   -9.1838 N.am    1  UNL1       -0.2453
     16 C           7.5906   -5.9458  -10.4202 C.2     1  UNL1        0.1533
     17 S           6.4271   -4.7322  -10.6043 S.2     1  UNL1       -0.0170
     18 N           7.9706   -6.8665  -11.4274 N.am    1  UNL1       -0.2627
     19 C           7.4859   -6.8903  -12.7554 C.2     1  UNL1        0.2496
     20 O           6.6227   -6.1427  -13.2092 O.2     1  UNL1       -0.2698
     21 C           8.0308   -7.8572  -13.7554 C.ar    1  UNL1        0.0378
     22 C           8.2694   -7.3580  -15.0541 C.ar    1  UNL1       -0.0496
     23 C           8.5991   -8.2124  -16.1076 C.ar    1  UNL1       -0.0603
     24 C           8.7413   -9.5759  -15.8646 C.ar    1  UNL1       -0.0477
     25 C           8.4735  -10.1030  -14.5878 C.ar    1  UNL1        0.0597
     26 C           8.5600  -11.5859  -14.4318 C.2     1  UNL1        0.3389
     27 O           8.9049  -12.3375  -15.3391 O.2     1  UNL1       -0.2450
     28 O           8.2150  -11.9744  -13.1808 O.3     1  UNL1       -0.4645
     29 C           8.2802  -13.3906  -12.9670 C.3     1  UNL1        0.0820
     30 C           8.1050   -9.2380  -13.5318 C.ar    1  UNL1       -0.0356
     31 C           7.0246   -3.2685   -6.0159 C.ar    1  UNL1       -0.0478
     32 C           6.5290   -2.4703   -4.9645 C.ar    1  UNL1       -0.0398
     33 H           0.7074    0.6554    0.8281 H       1  UNL1        0.0230
     34 H           0.6947   -0.9570    0.0920 H       1  UNL1        0.0230
     35 H           0.6940    0.4872   -0.9363 H       1  UNL1        0.0230
     36 H           2.9738   -0.3516    0.9375 H       1  UNL1        0.0263
     37 H           2.9725    1.0903   -0.0865 H       1  UNL1        0.0263
     38 H           2.7520   -0.3587   -2.1159 H       1  UNL1        0.0270
     39 H           2.7597   -1.7915   -1.0963 H       1  UNL1        0.0270
     40 H           5.0799   -1.2475   -0.3213 H       1  UNL1        0.0358
     41 H           5.0751    0.2134   -1.3385 H       1  UNL1        0.0358
     42 H           7.1010   -1.5490   -1.8340 H       1  UNL1        0.1548
     43 H           8.4443   -3.6370   -2.4222 H       1  UNL1        0.0636
     44 H           9.3903   -4.9620   -4.2745 H       1  UNL1        0.0626
     45 H           7.1681   -4.5070   -8.3491 H       1  UNL1        0.1731
     46 H           8.9667   -6.7689   -8.9483 H       1  UNL1        0.1718
     47 H           8.7082   -7.5200  -11.2074 H       1  UNL1        0.1569
     48 H           8.1636   -6.2915  -15.2586 H       1  UNL1        0.0625
     49 H           8.7219   -7.8203  -17.1165 H       1  UNL1        0.0618
     50 H           9.0440  -10.2290  -16.6841 H       1  UNL1        0.0626
     51 H           7.9843  -13.5935  -11.9336 H       1  UNL1        0.0661
     52 H           9.3031  -13.7553  -13.1082 H       1  UNL1        0.0661
     53 H           7.5882  -13.9189  -13.6317 H       1  UNL1        0.0661
     54 H           7.8204   -9.6477  -12.5686 H       1  UNL1        0.0633
     55 H           6.5824   -3.1156   -6.9934 H       1  UNL1        0.0626
     56 H           5.7408   -1.7510   -5.1817 H       1  UNL1        0.0636
@<TRIPOS>BOND
     1     1     2    1
     2     2     3    1
     3     3     4    1
     4     4     5    1
     5     5     6    2
     6     5     7   am
     7     7     8    1
     8     8     9   ar
     9     9    10   ar
    10    10    11   ar
    11    11    12    1
    12    12    13    2
    13    12    14   am
    14    14    15    1
    15    15    16    1
    16    16    17    2
    17    16    18    1
    18    18    19   am
    19    19    20    2
    20    19    21    1
    21    21    22   ar
    22    22    23   ar
    23    23    24   ar
    24    24    25   ar
    25    25    26    1
    26    26    27    2
    27    26    28    1
    28    28    29    1
    29    25    30   ar
    30    21    30   ar
    31    11    31   ar
    32    31    32   ar
    33     8    32   ar
    34     1    33    1
    35     1    34    1
    36     1    35    1
    37     2    36    1
    38     2    37    1
    39     3    38    1
    40     3    39    1
    41     4    40    1
    42     4    41    1
    43     7    42    1
    44     9    43    1
    45    10    44    1
    46    14    45    1
    47    15    46    1
    48    18    47    1
    49    22    48    1
    50    23    49    1
    51    24    50    1
    52    29    51    1
    53    29    52    1
    54    29    53    1
    55    30    54    1
    56    31    55    1
    57    32    56    1
