REMARK  8 active torsions:
REMARK  status: ('A' for Active; 'I' for Inactive)
REMARK       I    between atoms: C_2  and  N_3 
REMARK       I    between atoms: C_2  and  N_15 
REMARK    1  A    between atoms: N_3  and  C_4 
REMARK    2  A    between atoms: C_4  and  C_5 
REMARK    3  A    between atoms: C_5  and  C_6 
REMARK    4  A    between atoms: N_15  and  N_16 
REMARK       I    between atoms: N_16  and  C_17 
REMARK    5  A    between atoms: C_17  and  C_19 
REMARK    6  A    between atoms: C_22  and  C_23 
REMARK    7  A    between atoms: C_23  and  O_24 
REMARK    8  A    between atoms: O_24  and  C_25 
ROOT
ATOM      1  O   UNL d   1       1.180   0.107  -0.058  0.00  0.00    -0.246 OA
ATOM      2  C   UNL d   1       2.408   0.075  -0.038  0.00  0.00     0.334 C 
ATOM      3  N   UNL d   1       3.084  -0.882   0.673  0.00  0.00    -0.341 N 
ATOM      4  N   UNL d   1       3.165   0.999  -0.722  0.00  0.00    -0.249 N 
ATOM      5  H   UNL d   1       4.087  -0.864   0.666  0.00  0.00     0.164 HD
ATOM      6  H   UNL d   1       2.655   1.711  -1.250  0.00  0.00     0.192 HD
ENDROOT
BRANCH   4   7
ATOM      7  N   UNL d   1       4.579   1.050  -0.812  0.00  0.00    -0.260 N 
ATOM      8  C   UNL d   1       5.205   2.104  -1.500  0.00  0.00     0.293 C 
ATOM      9  O   UNL d   1       4.542   2.982  -2.060  0.00  0.00    -0.264 OA
ATOM     10  H   UNL d   1       5.137   0.414  -0.267  0.00  0.00     0.190 HD
BRANCH   8  11
ATOM     11  C   UNL d   1       6.667   2.029  -1.517  0.00  0.00     0.145 A 
ATOM     12  C   UNL d   1       7.502   0.934  -1.675  0.00  0.00     0.045 A 
ATOM     13  C   UNL d   1       8.831   1.407  -1.633  0.00  0.00     0.038 A 
ATOM     14  C   UNL d   1       8.770   2.771  -1.431  0.00  0.00     0.078 A 
ATOM     15  O   UNL d   1       7.451   3.165  -1.385  0.00  0.00    -0.307 OA
BRANCH  14  16
ATOM     16  C   UNL d   1       9.906   3.751  -1.311  0.00  0.00     0.240 C 
BRANCH  16  17
ATOM     17  O   UNL d   1       9.434   5.060  -1.011  0.00  0.00    -0.345 OA
BRANCH  17  18
ATOM     18  C   UNL d   1      10.408   6.032  -0.977  0.00  0.00     0.069 A 
ATOM     19  C   UNL d   1      10.211   7.053  -0.044  0.00  0.00     0.037 A 
ATOM     20  C   UNL d   1      11.050   8.172  -0.025  0.00  0.00     0.003 A 
ATOM     21  C   UNL d   1      12.136   8.246  -0.894  0.00  0.00     0.000 A 
ATOM     22  C   UNL d   1      12.356   7.220  -1.810  0.00  0.00     0.003 A 
ATOM     23  C   UNL d   1      11.489   6.121  -1.861  0.00  0.00     0.037 A 
ENDBRANCH  17  18
ENDBRANCH  16  17
ENDBRANCH  14  16
ENDBRANCH   8  11
ENDBRANCH   4   7
BRANCH   3  24
ATOM     24  C   UNL d   1       2.373  -1.899   1.440  0.00  0.00     0.130 C 
BRANCH  24  25
ATOM     25  C   UNL d   1       3.328  -2.834   2.166  0.00  0.00     0.078 C 
BRANCH  25  26
ATOM     26  C   UNL d   1       2.660  -3.937   2.893  0.00  0.00     0.027 A 
ATOM     27  C   UNL d   1       2.909  -5.284   2.821  0.00  0.00     0.117 A 
ATOM     28  N   UNL d   1       2.102  -5.909   3.747  0.00  0.00    -0.345 N 
ATOM     29  C   UNL d   1       1.348  -5.006   4.379  0.00  0.00     0.083 A 
ATOM     30  C   UNL d   1       2.105  -7.333   4.029  0.00  0.00     0.130 A 
ATOM     31  N   UNL d   1       1.676  -3.809   3.866  0.00  0.00    -0.348 N 
ATOM     32  C   UNL d   1       0.380  -5.316   5.456  0.00  0.00     0.076 A 
ATOM     33  H   UNL d   1       1.255  -2.935   4.177  0.00  0.00     0.167 HD
ATOM     34  C   UNL d   1       0.259  -6.782   5.835  0.00  0.00     0.009 A 
ATOM     35  C   UNL d   1       1.137  -7.796   5.105  0.00  0.00     0.021 A 
ENDBRANCH  25  26
ENDBRANCH  24  25
ENDBRANCH   3  24
TORSDOF 8
