REMARK  6 active torsions:
REMARK  status: ('A' for Active; 'I' for Inactive)
REMARK    1  A    between atoms: C_3  and  O_2 
REMARK    2  A    between atoms: C_3  and  C_26 
REMARK    3  A    between atoms: C_3  and  C_4 
REMARK       I    between atoms: C_4  and  N_6 
REMARK    4  A    between atoms: N_6  and  C_7 
REMARK    5  A    between atoms: N_11  and  C_12 
REMARK    6  A    between atoms: C_15  and  C_16 
ROOT
ATOM      1  C   UNL d   1       1.893   1.832  -1.682  0.00  0.00     0.043 A 
ATOM      2  C   UNL d   1       2.617   2.856  -2.358  0.00  0.00     0.066 A 
ATOM      3  C   UNL d   1       2.148   3.182  -3.664  0.00  0.00     0.111 A 
ATOM      4  N   UNL d   1       2.638   4.027  -4.597  0.00  0.00    -0.147 NA
ATOM      5  N   UNL d   1       1.684   3.996  -5.569  0.00  0.00    -0.150 N 
ATOM      6  N   UNL d   1       0.656   3.141  -5.387  0.00  0.00    -0.147 NA
ATOM      7  C   UNL d   1       0.957   2.552  -4.224  0.00  0.00     0.110 A 
ATOM      8  C   UNL d   1       0.265   1.529  -3.560  0.00  0.00     0.045 A 
ATOM      9  C   UNL d   1       0.745   1.189  -2.273  0.00  0.00    -0.033 A 
ATOM     10  C   UNL d   1      -0.063   0.155  -1.517  0.00  0.00     0.050 C 
ENDROOT
BRANCH   1  11
ATOM     11  N   UNL d   1       2.307   1.413  -0.372  0.00  0.00    -0.324 N 
ATOM     12  C   UNL d   1       2.651   0.074  -0.181  0.00  0.00     0.255 C 
ATOM     13  O   UNL d   1       2.768  -0.686  -1.160  0.00  0.00    -0.270 OA
ATOM     14  H   UNL d   1       2.769   2.096   0.218  0.00  0.00     0.169 HD
BRANCH  12  15
ATOM     15  C   UNL d   1       2.943  -0.460   1.280  0.00  0.00     0.247 C 
BRANCH  15  16
ATOM     16  C   UNL d   1       4.469  -0.498   1.476  0.00  0.00     0.001 C 
ATOM     17  C   UNL d   1       5.125   0.755   1.419  0.00  0.00     0.012 C 
ATOM     18  C   UNL d   1       6.497   0.847   1.189  0.00  0.00     0.001 C 
ATOM     19  C   UNL d   1       7.260  -0.307   1.091  0.00  0.00     0.002 C 
ATOM     20  C   UNL d   1       6.663  -1.540   1.313  0.00  0.00     0.024 C 
ATOM     21  C   UNL d   1       5.287  -1.645   1.532  0.00  0.00     0.043 C 
ATOM     22 CL   UNL d   1       4.795  -3.246   1.963  0.00  0.00    -0.084 Cl
ENDBRANCH  15  16
BRANCH  15  23
ATOM     23  O   UNL d   1       2.282  -1.687   1.611  0.00  0.00    -0.377 OA
ATOM     24  C   UNL d   1       2.219  -2.657   0.559  0.00  0.00     0.203 C 
ENDBRANCH  15  23
ENDBRANCH  12  15
ENDBRANCH   1  11
BRANCH   5  25
ATOM     25  C   UNL d   1       1.757   4.765  -6.760  0.00  0.00     0.079 A 
ATOM     26  C   UNL d   1       0.630   5.463  -7.217  0.00  0.00     0.034 A 
ATOM     27  C   UNL d   1       0.643   6.077  -8.478  0.00  0.00     0.010 A 
ATOM     28  C   UNL d   1       1.792   6.045  -9.284  0.00  0.00    -0.055 A 
ATOM     29  C   UNL d   1       2.938   5.415  -8.762  0.00  0.00     0.010 A 
ATOM     30  C   UNL d   1       2.920   4.755  -7.527  0.00  0.00     0.034 A 
BRANCH  28  31
ATOM     31  C   UNL d   1       1.751   6.628 -10.697  0.00  0.00     0.010 C 
ATOM     32  C   UNL d   1       1.374   8.113 -10.695  0.00  0.00     0.015 C 
ATOM     33  C   UNL d   1       3.064   6.447 -11.469  0.00  0.00     0.015 C 
ENDBRANCH  28  31
ENDBRANCH   5  25
TORSDOF 6
