REMARK  3 active torsions:
REMARK  status: ('A' for Active; 'I' for Inactive)
REMARK       I    between atoms: C_2  and  N_3 
REMARK    1  A    between atoms: C_2  and  C_11 
REMARK    2  A    between atoms: N_3  and  C_4 
REMARK    3  A    between atoms: C_16  and  O_17 
ROOT
ATOM      1  O   UNL d   1       1.054  -0.284  -0.071  0.00  0.00    -0.267 OA
ATOM      2  C   UNL d   1       2.275  -0.123  -0.111  0.00  0.00     0.259 C 
ATOM      3  N   UNL d   1       2.968   0.269  -1.256  0.00  0.00    -0.322 N 
ATOM      4  H   UNL d   1       3.942   0.004  -1.327  0.00  0.00     0.169 HD
ENDROOT
BRANCH   2   5
ATOM      5  C   UNL d   1       3.074  -0.419   1.108  0.00  0.00     0.065 A 
ATOM      6  C   UNL d   1       4.168   0.380   1.473  0.00  0.00     0.020 A 
ATOM      7  C   UNL d   1       4.887   0.086   2.638  0.00  0.00     0.001 A 
ATOM      8  C   UNL d   1       4.513  -0.993   3.443  0.00  0.00     0.003 A 
ATOM      9  C   UNL d   1       3.404  -1.768   3.105  0.00  0.00     0.037 A 
ATOM     10  C   UNL d   1       2.686  -1.478   1.946  0.00  0.00     0.081 A 
BRANCH  10  11
ATOM     11  O   UNL d   1       1.622  -2.266   1.605  0.00  0.00    -0.360 OA
ATOM     12  H   UNL d   1       1.372  -2.852   2.334  0.00  0.00     0.217 HD
ENDBRANCH  10  11
ENDBRANCH   2   5
BRANCH   3  13
ATOM     13  C   UNL d   1       2.268   0.600  -2.450  0.00  0.00     0.052 A 
ATOM     14  C   UNL d   1       2.702   0.050  -3.670  0.00  0.00     0.031 A 
ATOM     15  C   UNL d   1       2.011   0.325  -4.862  0.00  0.00     0.002 A 
ATOM     16  C   UNL d   1       0.905   1.172  -4.853  0.00  0.00     0.002 A 
ATOM     17  C   UNL d   1       0.486   1.745  -3.657  0.00  0.00     0.021 A 
ATOM     18  C   UNL d   1       1.163   1.476  -2.464  0.00  0.00     0.037 A 
ATOM     19 BR   UNL d   1       0.618   2.542  -0.975  0.00  0.00    -0.049 Br
ENDBRANCH   3  13
TORSDOF 3
