REMARK  5 active torsions:
REMARK  status: ('A' for Active; 'I' for Inactive)
REMARK    1  A    between atoms: C_2  and  C_4 
REMARK    2  A    between atoms: C_4  and  C_5 
REMARK    3  A    between atoms: C_5  and  C_6 
REMARK       I    between atoms: C_6  and  N_8 
REMARK    4  A    between atoms: N_8  and  N_9 
REMARK       I    between atoms: N_9  and  C_10 
REMARK    5  A    between atoms: C_10  and  C_12 
ROOT
ATOM      1  C   UNL d   1       5.126  -1.177  -2.834  0.00  0.00     0.236 C 
ATOM      2  O   UNL d   1       4.361  -1.557  -3.720  0.00  0.00    -0.272 OA
ATOM      3  N   UNL d   1       6.500  -1.241  -2.981  0.00  0.00    -0.268 N 
ATOM      4  H   UNL d   1       7.176  -0.954  -2.275  0.00  0.00     0.190 HD
ENDROOT
BRANCH   3   5
ATOM      5  N   UNL d   1       7.011  -1.723  -4.203  0.00  0.00    -0.267 N 
ATOM      6  C   UNL d   1       8.372  -1.854  -4.380  0.00  0.00     0.240 C 
ATOM      7  O   UNL d   1       9.190  -1.526  -3.521  0.00  0.00    -0.271 OA
ATOM      8  H   UNL d   1       6.323  -2.052  -4.875  0.00  0.00     0.190 HD
BRANCH   6   9
ATOM      9  C   UNL d   1       8.861  -2.413  -5.683  0.00  0.00     0.083 A 
ATOM     10  C   UNL d   1       7.981  -2.833  -6.840  0.00  0.00     0.019 A 
ATOM     11  C   UNL d   1       8.693  -3.884  -6.028  0.00  0.00    -0.005 A 
ATOM     12  C   UNL d   1       7.981  -4.811  -5.104  0.00  0.00     0.011 C 
ENDBRANCH   6   9
ENDBRANCH   3   5
BRANCH   1  13
ATOM     13  C   UNL d   1       4.650  -0.618  -1.501  0.00  0.00     0.105 C 
BRANCH  13  14
ATOM     14  C   UNL d   1       3.115  -0.593  -1.412  0.00  0.00     0.013 C 
BRANCH  14  15
ATOM     15  C   UNL d   1       2.578  -0.046  -0.076  0.00  0.00    -0.022 C 
ATOM     16  C   UNL d   1       1.046  -0.024  -0.090  0.00  0.00     0.009 C 
ATOM     17  C   UNL d   1       3.058  -0.888   1.105  0.00  0.00     0.009 C 
ENDBRANCH  14  15
ENDBRANCH  13  14
ENDBRANCH   1  13
TORSDOF 5
