@<TRIPOS>MOLECULE
*****
 55 57 0 0 0
SMALL
GASTEIGER

@<TRIPOS>ATOM
      1 C           1.1076   -0.0721    0.0401 C.3     1  UNL1        0.0125
      2 C           2.6169   -0.0588    0.1568 C.2     1  UNL1        0.2155
      3 O           3.1414    0.4586    1.1401 O.2     1  UNL1       -0.2757
      4 N           3.2936   -0.6186   -0.9126 N.am    1  UNL1       -0.2649
      5 C           4.6756   -0.5559   -0.9825 C.ar    1  UNL1        0.1654
      6 N           5.3346   -0.2841   -2.0814 N.ar    1  UNL1       -0.2246
      7 C           6.7012   -0.2860   -1.8119 C.ar    1  UNL1        0.0804
      8 C           7.7144    0.0790   -2.7074 C.ar    1  UNL1       -0.0334
      9 C           9.0549   -0.0051   -2.3181 C.ar    1  UNL1       -0.0384
     10 C           9.4503   -0.4436   -1.0550 C.ar    1  UNL1        0.0349
     11 N          10.8326   -0.5147   -0.6930 N.am    1  UNL1       -0.2815
     12 C          11.8874   -0.1200   -1.5219 C.2     1  UNL1        0.2483
     13 O          11.8045    0.3256   -2.6626 O.2     1  UNL1       -0.2699
     14 C          13.2733   -0.2609   -1.0284 C.ar    1  UNL1        0.0370
     15 C          14.2260    0.7032   -1.3998 C.ar    1  UNL1       -0.0493
     16 C          15.5884    0.4848   -1.1586 C.ar    1  UNL1       -0.0564
     17 C          16.0117   -0.6680   -0.4732 C.ar    1  UNL1       -0.0302
     18 C          17.4670   -0.8088   -0.0741 C.3     1  UNL1        0.0400
     19 N          17.7922   -1.9974    0.6982 N.am    1  UNL1       -0.2770
     20 C          19.0521   -2.2133    1.1603 C.2     1  UNL1        0.4010
     21 O          19.9708   -1.4244    0.9530 O.2     1  UNL1       -0.2265
     22 O          19.1454   -3.3849    1.8586 O.3     1  UNL1       -0.4447
     23 C          20.4485   -3.7594    2.4050 C.3     1  UNL1        0.1068
     24 C          21.4737   -3.9451    1.2787 C.3     1  UNL1       -0.0253
     25 C          20.9206   -2.7230    3.4328 C.3     1  UNL1       -0.0253
     26 C          20.3328   -5.1127    3.1426 C.3     1  UNL1       -0.0253
     27 C          15.0418   -1.6289   -0.1442 C.ar    1  UNL1       -0.0564
     28 C          13.6867   -1.4338   -0.4136 C.ar    1  UNL1       -0.0493
     29 C           8.4463   -0.8090   -0.1368 C.ar    1  UNL1       -0.0246
     30 C           7.0801   -0.7054   -0.5330 C.ar    1  UNL1        0.0425
     31 S           5.6335   -1.0248    0.3599 S.2     1  UNL1       -0.0520
     32 H           0.6876    0.3598    0.9576 H       1  UNL1        0.0323
     33 H           0.7282   -1.0926   -0.0499 H       1  UNL1        0.0323
     34 H           0.7647    0.5383   -0.7996 H       1  UNL1        0.0323
     35 H           2.8280   -0.6665   -1.8097 H       1  UNL1        0.1567
     36 H           7.4776    0.4346   -3.7047 H       1  UNL1        0.0640
     37 H           9.7705    0.2933   -3.0730 H       1  UNL1        0.0637
     38 H          11.0510   -0.8311    0.2450 H       1  UNL1        0.1551
     39 H          13.9058    1.6155   -1.9041 H       1  UNL1        0.0625
     40 H          16.3092    1.2181   -1.5230 H       1  UNL1        0.0621
     41 H          17.7367    0.0596    0.5434 H       1  UNL1        0.0513
     42 H          18.1117   -0.7898   -0.9623 H       1  UNL1        0.0513
     43 H          17.1072   -2.6885    0.9513 H       1  UNL1        0.1523
     44 H          21.6190   -3.0340    0.6956 H       1  UNL1        0.0268
     45 H          21.1405   -4.7161    0.5749 H       1  UNL1        0.0268
     46 H          22.4518   -4.2325    1.6773 H       1  UNL1        0.0268
     47 H          21.0270   -1.7273    2.9986 H       1  UNL1        0.0268
     48 H          21.8930   -2.9977    3.8537 H       1  UNL1        0.0268
     49 H          20.1969   -2.6312    4.2505 H       1  UNL1        0.0268
     50 H          20.0017   -5.9159    2.4753 H       1  UNL1        0.0268
     51 H          19.6175   -5.0679    3.9710 H       1  UNL1        0.0268
     52 H          21.3049   -5.4107    3.5611 H       1  UNL1        0.0268
     53 H          15.3129   -2.5732    0.3100 H       1  UNL1        0.0621
     54 H          12.9858   -2.2296   -0.1875 H       1  UNL1        0.0625
     55 H           8.6823   -1.1557    0.8655 H       1  UNL1        0.0648
@<TRIPOS>BOND
     1     1     2    1
     2     2     3    2
     3     2     4   am
     4     4     5    1
     5     5     6   ar
     6     6     7   ar
     7     7     8   ar
     8     8     9   ar
     9     9    10   ar
    10    10    11    1
    11    11    12   am
    12    12    13    2
    13    12    14    1
    14    14    15   ar
    15    15    16   ar
    16    16    17   ar
    17    17    18    1
    18    18    19    1
    19    19    20   am
    20    20    21    2
    21    20    22    1
    22    22    23    1
    23    23    24    1
    24    23    25    1
    25    23    26    1
    26    17    27   ar
    27    27    28   ar
    28    14    28   ar
    29    10    29   ar
    30    29    30   ar
    31     7    30   ar
    32    30    31   ar
    33     5    31   ar
    34     1    32    1
    35     1    33    1
    36     1    34    1
    37     4    35    1
    38     8    36    1
    39     9    37    1
    40    11    38    1
    41    15    39    1
    42    16    40    1
    43    18    41    1
    44    18    42    1
    45    19    43    1
    46    24    44    1
    47    24    45    1
    48    24    46    1
    49    25    47    1
    50    25    48    1
    51    25    49    1
    52    26    50    1
    53    26    51    1
    54    26    52    1
    55    27    53    1
    56    28    54    1
    57    29    55    1
