REMARK  8 active torsions:
REMARK  status: ('A' for Active; 'I' for Inactive)
REMARK    1  A    between atoms: O_2  and  C_3 
REMARK    2  A    between atoms: C_6  and  N_7 
REMARK       I    between atoms: N_7  and  C_8 
REMARK       I    between atoms: C_8  and  N_22 
REMARK       I    between atoms: N_9  and  C_10 
REMARK    3  A    between atoms: C_10  and  C_12 
REMARK    4  A    between atoms: C_15  and  N_16 
REMARK       I    between atoms: N_16  and  C_17 
REMARK    5  A    between atoms: N_22  and  C_23 
REMARK    6  A    between atoms: C_23  and  C_24 
REMARK    7  A    between atoms: C_24  and  C_25 
REMARK    8  A    between atoms: C_35  and  O_36 
ROOT
ATOM      1  N   UNL d   1       5.390  -1.456   4.361  0.00  0.00    -0.190 N 
ATOM      2  C   UNL d   1       4.920  -2.418   5.284  0.00  0.00     0.704 C 
ATOM      3  N   UNL d   1       3.864  -3.178   5.252  0.00  0.00    -0.023 NA
ATOM      4  C   UNL d   1       2.793  -2.717   4.543  0.00  0.00     0.293 C 
ATOM      5  O   UNL d   1       2.372  -1.583   4.665  0.00  0.00    -0.265 OA
ATOM      6  N   UNL d   1       5.687  -2.630   6.441  0.00  0.00    -0.224 N 
ATOM      7  H   UNL d   1       6.068  -0.793   4.711  0.00  0.00     0.184 HD
ATOM      8  H   UNL d   1       6.362  -1.937   6.742  0.00  0.00     0.177 HD
ENDROOT
BRANCH   1   9
ATOM      9  C   UNL d   1       4.823  -1.054   3.093  0.00  0.00     0.052 C 
ATOM     10  C   UNL d   1       5.081   0.142   2.440  0.00  0.00     0.033 C 
ATOM     11  C   UNL d   1       4.245   0.589   1.350  0.00  0.00     0.042 C 
ATOM     12  C   UNL d   1       3.068  -0.077   0.943  0.00  0.00     0.101 C 
ATOM     13  C   UNL d   1       2.840  -1.260   1.593  0.00  0.00     0.103 C 
ATOM     14  C   UNL d   1       3.884  -1.803   2.403  0.00  0.00     0.069 C 
BRANCH  12  15
ATOM     15  O   UNL d   1       2.505   0.323  -0.243  0.00  0.00    -0.353 OA
ATOM     16  C   UNL d   1       1.106   0.543  -0.410  0.00  0.00     0.210 C 
ENDBRANCH  12  15
BRANCH  13  17
ATOM     17  O   UNL d   1       1.697  -1.985   1.709  0.00  0.00    -0.353 OA
ATOM     18  C   UNL d   1       0.626  -1.875   0.825  0.00  0.00     0.210 C 
ENDBRANCH  13  17
ENDBRANCH   1   9
BRANCH   6  19
ATOM     19  C   UNL d   1       5.165  -3.554   7.488  0.00  0.00     0.142 C 
BRANCH  19  20
ATOM     20  C   UNL d   1       6.035  -3.665   8.732  0.00  0.00     0.057 C 
BRANCH  20  21
ATOM     21  C   UNL d   1       5.642  -4.684   9.778  0.00  0.00    -0.048 A 
ATOM     22  C   UNL d   1       6.418  -4.881  10.846  0.00  0.00    -0.006 A 
ATOM     23  C   UNL d   1       7.641  -4.270  11.220  0.00  0.00     0.014 A 
ATOM     24  C   UNL d   1       5.811  -5.962  11.631  0.00  0.00     0.038 A 
ATOM     25  C   UNL d   1       8.319  -4.786  12.249  0.00  0.00     0.001 A 
ATOM     26  C   UNL d   1       7.750  -5.841  13.072  0.00  0.00     0.002 A 
ATOM     27  C   UNL d   1       6.558  -6.427  12.823  0.00  0.00     0.030 A 
ATOM     28  N   UNL d   1       4.700  -6.340  11.120  0.00  0.00    -0.385 N 
ATOM     29  C   UNL d   1       4.459  -5.619   9.822  0.00  0.00     0.155 A 
ATOM     30  H   UNL d   1       4.100  -7.030  11.573  0.00  0.00     0.160 HD
ENDBRANCH  20  21
ENDBRANCH  19  20
ENDBRANCH   6  19
BRANCH   4  31
ATOM     31  C   UNL d   1       1.889  -3.768   3.963  0.00  0.00     0.035 C 
ATOM     32  C   UNL d   1       1.696  -4.289   2.650  0.00  0.00     0.019 C 
ATOM     33  C   UNL d   1       0.419  -4.760   2.248  0.00  0.00     0.030 C 
ATOM     34  C   UNL d   1      -0.607  -4.785   3.183  0.00  0.00     0.034 C 
ATOM     35  C   UNL d   1      -0.376  -4.166   4.396  0.00  0.00     0.030 C 
ATOM     36  C   UNL d   1       0.856  -3.803   4.848  0.00  0.00     0.019 C 
BRANCH  34  37
ATOM     37  N   UNL d   1      -1.826  -5.427   2.923  0.00  0.00    -0.328 N 
ATOM     38  C   UNL d   1      -2.780  -5.859   3.813  0.00  0.00     0.218 C 
ATOM     39  C   UNL d   1      -2.727  -5.579   5.304  0.00  0.00     0.117 C 
ATOM     40  O   UNL d   1      -3.725  -6.522   3.375  0.00  0.00    -0.274 OA
ATOM     41  H   UNL d   1      -1.979  -5.802   1.991  0.00  0.00     0.169 HD
ENDBRANCH  34  37
ENDBRANCH   4  31
TORSDOF 8
