@<TRIPOS>MOLECULE
*****
 51 54 0 0 0
SMALL
GASTEIGER

@<TRIPOS>ATOM
      1 O           1.1275    0.0148   -0.0924 O.2     1  UNL1       -0.2636
      2 C           2.3596    0.0251   -0.0796 C.2     1  UNL1        0.3150
      3 N           3.0994   -0.6289   -1.0582 N.am    1  UNL1       -0.2263
      4 N           2.4134   -1.3372   -2.0991 N.am    1  UNL1       -0.2287
      5 C           3.1589   -2.0295   -3.0547 C.2     1  UNL1        0.2805
      6 O           4.3959   -2.0105   -2.9993 O.2     1  UNL1       -0.2669
      7 C           2.4067   -2.7312   -4.1315 C.ar    1  UNL1        0.1523
      8 N           2.7592   -3.9560   -4.5772 N.ar    1  UNL1       -0.1611
      9 N           1.9836   -4.2010   -5.6684 N.ar    1  UNL1       -0.2357
     10 C           2.1268   -5.4136   -6.4047 C.ar    1  UNL1        0.0658
     11 C           2.1031   -6.6342   -5.7151 C.ar    1  UNL1       -0.0349
     12 C           2.1672   -7.8425   -6.4220 C.ar    1  UNL1       -0.0414
     13 C           2.3082   -7.8320   -7.8089 C.ar    1  UNL1        0.0411
     14 CL          2.4111   -9.3201   -8.6704 Cl      1  UNL1       -0.0835
     15 C           2.3664   -6.6212   -8.4999 C.ar    1  UNL1       -0.0414
     16 C           2.2599   -5.4074   -7.8021 C.ar    1  UNL1       -0.0349
     17 C           1.0503   -3.1971   -5.8610 C.ar    1  UNL1        0.0489
     18 C           1.2901   -2.2471   -4.8717 C.ar    1  UNL1        0.0061
     19 C           0.5468   -0.9608   -4.6927 C.3     1  UNL1       -0.0237
     20 C           0.2435   -0.3070   -6.0399 C.3     1  UNL1       -0.0489
     21 C          -1.0224   -0.8743   -6.6935 C.3     1  UNL1       -0.0524
     22 C          -1.2457   -2.3759   -6.4583 C.3     1  UNL1       -0.0476
     23 C          -0.0343   -3.2093   -6.9054 C.3     1  UNL1       -0.0100
     24 C           3.1220    0.7883    1.0511 C.2     1  UNL1        0.3007
     25 O           2.4763    1.3476    1.9357 O.2     1  UNL1       -0.2651
     26 N           4.5143    0.8083    1.0198 N.am    1  UNL1       -0.3047
     27 C           5.2765    1.4821    2.0413 C.3     1  UNL1        0.0237
     28 C           6.7315    1.8150    1.8284 C.3     1  UNL1       -0.0328
     29 C           5.7103    2.9137    1.8590 C.3     1  UNL1       -0.0328
     30 H           4.1123   -0.6685   -1.1059 H       1  UNL1        0.1733
     31 H           1.3951   -1.3563   -2.0504 H       1  UNL1        0.1732
     32 H           1.9807   -6.6562   -4.6345 H       1  UNL1        0.0639
     33 H           2.1004   -8.7870   -5.8870 H       1  UNL1        0.0633
     34 H           2.4972   -6.6208   -9.5802 H       1  UNL1        0.0633
     35 H           2.3375   -4.4762   -8.3577 H       1  UNL1        0.0639
     36 H           1.1316   -0.2624   -4.0906 H       1  UNL1        0.0314
     37 H          -0.3780   -1.1488   -4.1314 H       1  UNL1        0.0314
     38 H           1.0970   -0.4365   -6.7202 H       1  UNL1        0.0268
     39 H           0.1232    0.7738   -5.9073 H       1  UNL1        0.0268
     40 H          -0.9780   -0.6788   -7.7723 H       1  UNL1        0.0265
     41 H          -1.8915   -0.3235   -6.3148 H       1  UNL1        0.0265
     42 H          -2.1459   -2.6860   -6.9996 H       1  UNL1        0.0269
     43 H          -1.4695   -2.5666   -5.3995 H       1  UNL1        0.0269
     44 H           0.3578   -2.8075   -7.8483 H       1  UNL1        0.0328
     45 H          -0.3759   -4.2313   -7.1014 H       1  UNL1        0.0328
     46 H           5.0311    0.2952    0.3232 H       1  UNL1        0.1494
     47 H           4.9905    1.1869    3.0512 H       1  UNL1        0.0498
     48 H           7.1930    1.5842    0.8763 H       1  UNL1        0.0284
     49 H           7.4118    1.7342    2.6706 H       1  UNL1        0.0284
     50 H           5.4665    3.4141    0.9297 H       1  UNL1        0.0284
     51 H           5.6864    3.5713    2.7224 H       1  UNL1        0.0284
@<TRIPOS>BOND
     1     1     2    2
     2     2     3   am
     3     3     4    1
     4     4     5   am
     5     5     6    2
     6     5     7    1
     7     7     8   ar
     8     8     9   ar
     9     9    10    1
    10    10    11   ar
    11    11    12   ar
    12    12    13   ar
    13    13    14    1
    14    13    15   ar
    15    15    16   ar
    16    10    16   ar
    17     9    17   ar
    18    17    18   ar
    19     7    18   ar
    20    18    19    1
    21    19    20    1
    22    20    21    1
    23    21    22    1
    24    22    23    1
    25    17    23    1
    26     2    24    1
    27    24    25    2
    28    24    26   am
    29    26    27    1
    30    27    28    1
    31    28    29    1
    32    27    29    1
    33     3    30    1
    34     4    31    1
    35    11    32    1
    36    12    33    1
    37    15    34    1
    38    16    35    1
    39    19    36    1
    40    19    37    1
    41    20    38    1
    42    20    39    1
    43    21    40    1
    44    21    41    1
    45    22    42    1
    46    22    43    1
    47    23    44    1
    48    23    45    1
    49    26    46    1
    50    27    47    1
    51    28    48    1
    52    28    49    1
    53    29    50    1
    54    29    51    1
