REMARK  7 active torsions:
REMARK  status: ('A' for Active; 'I' for Inactive)
REMARK    1  A    between atoms: O_2  and  C_3 
REMARK    2  A    between atoms: C_5  and  S_6 
REMARK    3  A    between atoms: S_6  and  N_9 
REMARK    4  A    between atoms: N_9  and  C_10 
REMARK    5  A    between atoms: C_18  and  N_19 
REMARK       I    between atoms: N_19  and  C_20 
REMARK    6  A    between atoms: C_20  and  C_22 
REMARK    7  A    between atoms: C_27  and  N_28 
ROOT
ATOM      1  C   UNL d   1       2.967  -1.120  -0.495  0.00  0.00     0.096 C 
ATOM      2  C   UNL d   1       4.115  -1.641   0.126  0.00  0.00     0.064 C 
ATOM      3  C   UNL d   1       4.943  -2.567  -0.531  0.00  0.00     0.082 C 
ATOM      4  C   UNL d   1       4.544  -3.096  -1.750  0.00  0.00     0.028 C 
ATOM      5  C   UNL d   1       3.430  -2.546  -2.394  0.00  0.00     0.034 C 
ATOM      6  C   UNL d   1       2.693  -1.489  -1.820  0.00  0.00     0.068 C 
ENDROOT
BRANCH   6   7
ATOM      7  N   UNL d   1       1.709  -0.905  -2.657  0.00  0.00    -0.320 N 
ATOM      8  C   UNL d   1       1.063   0.281  -2.426  0.00  0.00     0.258 C 
ATOM      9  O   UNL d   1       1.586   1.228  -1.837  0.00  0.00    -0.267 OA
ATOM     10  H   UNL d   1       1.362  -1.524  -3.377  0.00  0.00     0.169 HD
BRANCH   8  11
ATOM     11  C   UNL d   1      -0.357   0.460  -2.887  0.00  0.00     0.065 A 
ATOM     12  C   UNL d   1      -0.779   1.812  -2.796  0.00  0.00     0.020 A 
ATOM     13  C   UNL d   1      -2.034   2.237  -3.220  0.00  0.00     0.001 A 
ATOM     14  C   UNL d   1      -2.898   1.323  -3.791  0.00  0.00     0.002 A 
ATOM     15  C   UNL d   1      -2.560  -0.030  -3.807  0.00  0.00     0.037 A 
ATOM     16  C   UNL d   1      -1.308  -0.482  -3.326  0.00  0.00     0.118 A 
BRANCH  16  17
ATOM     17  N   UNL d   1      -1.142  -1.948  -3.300  0.00  0.00    -0.115 N 
ATOM     18  O   UNL d   1      -1.979  -2.633  -3.901  0.00  0.00    -0.532 OA
ATOM     19  O   UNL d   1      -0.192  -2.442  -2.691  0.00  0.00    -0.532 OA
ENDBRANCH  16  17
ENDBRANCH   8  11
ENDBRANCH   6   7
BRANCH   1  20
ATOM     20  O   UNL d   1       2.292  -0.212   0.272  0.00  0.00    -0.354 OA
ATOM     21  C   UNL d   1       0.879  -0.344   0.427  0.00  0.00     0.210 C 
ENDBRANCH   1  20
BRANCH   3  22
ATOM     22  S   UNL d   1       6.527  -2.932   0.204  0.00  0.00     0.263 S 
ATOM     23  O   UNL d   1       7.262  -1.690   0.215  0.00  0.00    -0.200 OA
ATOM     24  O   UNL d   1       6.220  -3.646   1.432  0.00  0.00    -0.200 OA
BRANCH  22  25
ATOM     25  N   UNL d   1       7.344  -3.978  -0.841  0.00  0.00    -0.281 N 
ATOM     26  H   UNL d   1       6.937  -4.286  -1.713  0.00  0.00     0.179 HD
BRANCH  25  27
ATOM     27  C   UNL d   1       8.643  -4.479  -0.508  0.00  0.00     0.042 A 
ATOM     28  C   UNL d   1       9.604  -4.641  -1.513  0.00  0.00     0.030 A 
ATOM     29  C   UNL d   1      10.824  -5.273  -1.228  0.00  0.00     0.002 A 
ATOM     30  C   UNL d   1      11.111  -5.688   0.071  0.00  0.00     0.000 A 
ATOM     31  C   UNL d   1      10.159  -5.527   1.071  0.00  0.00     0.002 A 
ATOM     32  C   UNL d   1       8.928  -4.943   0.775  0.00  0.00     0.030 A 
ENDBRANCH  25  27
ENDBRANCH  22  25
ENDBRANCH   3  22
TORSDOF 7
