@<TRIPOS>MOLECULE
*****
 37 39 0 0 0
SMALL
GASTEIGER

@<TRIPOS>ATOM
      1 O           1.0011    0.0626    0.0726 O.2     1  UNL1       -0.2708
      2 C           2.2323    0.0998   -0.0623 C.2     1  UNL1        0.2653
      3 N           2.8751    1.1531   -0.7071 N.am    1  UNL1       -0.2045
      4 N           2.1984    2.3053   -1.0328 N.2     1  UNL1       -0.1862
      5 C           2.9170    3.2489   -1.5518 C.2     1  UNL1        0.0689
      6 C           2.2931    4.4046   -2.1375 C.ar    1  UNL1        0.0601
      7 C           2.6229    4.9876   -3.3457 C.ar    1  UNL1       -0.0277
      8 C           1.6354    5.9551   -3.6583 C.ar    1  UNL1        0.0003
      9 C           1.3963    6.7620   -4.7859 C.ar    1  UNL1       -0.0526
     10 C           0.2770    7.5974   -4.8054 C.ar    1  UNL1       -0.0611
     11 C          -0.5820    7.6514   -3.7101 C.ar    1  UNL1       -0.0598
     12 C          -0.3534    6.8707   -2.5678 C.ar    1  UNL1       -0.0378
     13 C           0.7561    6.0122   -2.5777 C.ar    1  UNL1        0.0469
     14 N           1.1955    5.0833   -1.6529 N.ar    1  UNL1       -0.3534
     15 C           3.1209   -1.0742    0.4963 C.3     1  UNL1        0.1574
     16 O           2.7996   -2.3165   -0.1334 O.3     1  UNL1       -0.3778
     17 C           4.6348   -0.8798    0.5153 C.ar    1  UNL1       -0.0103
     18 C           5.5236   -1.9666    0.4444 C.ar    1  UNL1       -0.0557
     19 C           6.9052   -1.7566    0.5055 C.ar    1  UNL1       -0.0614
     20 C           7.4174   -0.4609    0.5045 C.ar    1  UNL1       -0.0617
     21 C           6.5544    0.6191    0.5968 C.ar    1  UNL1       -0.0614
     22 C           5.1914    0.3909    0.7243 C.ar    1  UNL1       -0.0557
     23 H           3.8374    1.0614   -1.0189 H       1  UNL1        0.1773
     24 H           4.0179    3.1789   -1.6439 H       1  UNL1        0.0866
     25 H           3.4249    4.6711   -3.9991 H       1  UNL1        0.0645
     26 H           2.0595    6.7142   -5.6440 H       1  UNL1        0.0624
     27 H           0.0759    8.2008   -5.6872 H       1  UNL1        0.0618
     28 H          -1.4520    8.3039   -3.7506 H       1  UNL1        0.0618
     29 H          -1.0349    6.9174   -1.7242 H       1  UNL1        0.0638
     30 H           0.7424    4.8880   -0.7695 H       1  UNL1        0.1659
     31 H           2.8300   -1.1869    1.5494 H       1  UNL1        0.0742
     32 H           2.9792   -2.2178   -1.0822 H       1  UNL1        0.2109
     33 H           5.1538   -2.9905    0.3771 H       1  UNL1        0.0621
     34 H           7.5847   -2.6036    0.5607 H       1  UNL1        0.0618
     35 H           8.4893   -0.2909    0.4776 H       1  UNL1        0.0618
     36 H           6.9309    1.6376    0.6145 H       1  UNL1        0.0618
     37 H           4.5629    1.2444    0.9675 H       1  UNL1        0.0621
@<TRIPOS>BOND
     1     1     2    2
     2     2     3   am
     3     3     4    1
     4     4     5    2
     5     5     6    1
     6     6     7   ar
     7     7     8   ar
     8     8     9   ar
     9     9    10   ar
    10    10    11   ar
    11    11    12   ar
    12    12    13   ar
    13     8    13   ar
    14    13    14   ar
    15     6    14   ar
    16     2    15    1
    17    15    16    1
    18    15    17    1
    19    17    18   ar
    20    18    19   ar
    21    19    20   ar
    22    20    21   ar
    23    21    22   ar
    24    17    22   ar
    25     3    23    1
    26     5    24    1
    27     7    25    1
    28     9    26    1
    29    10    27    1
    30    11    28    1
    31    12    29    1
    32    14    30    1
    33    15    31    1
    34    16    32    1
    35    18    33    1
    36    19    34    1
    37    20    35    1
    38    21    36    1
    39    22    37    1
