@<TRIPOS>MOLECULE
*****
 34 35 0 0 0
SMALL
GASTEIGER

@<TRIPOS>ATOM
      1 C           2.4883    1.1832   -0.0006 C.3     1  UNL1       -0.0396
      2 C           1.2463    0.3379    0.0040 C.ar    1  UNL1       -0.0470
      3 C           1.2996   -1.0581    0.0181 C.ar    1  UNL1       -0.0579
      4 C           0.1207   -1.8269    0.0003 C.ar    1  UNL1       -0.0458
      5 C          -1.1452   -1.2206   -0.0213 C.ar    1  UNL1        0.0795
      6 C          -2.4199   -2.0315   -0.0576 C.2     1  UNL1        0.2637
      7 O          -3.5040   -1.4416   -0.0756 O.2     1  UNL1       -0.2685
      8 N          -2.3361   -3.4231   -0.0729 N.am    1  UNL1       -0.2300
      9 N          -3.5222   -4.2095   -0.1216 N.am    1  UNL1       -0.2297
     10 C          -3.4426   -5.6042   -0.1030 C.2     1  UNL1        0.2670
     11 O          -2.3381   -6.1599   -0.0279 O.2     1  UNL1       -0.2681
     12 C          -4.7159   -6.3297   -0.1944 C.ar    1  UNL1        0.0782
     13 S          -4.9580   -7.7479    0.7530 S.2     1  UNL1       -0.0918
     14 C          -6.5241   -8.0137    0.1157 C.ar    1  UNL1       -0.0233
     15 C          -6.8522   -7.0668   -0.8251 C.ar    1  UNL1       -0.0511
     16 C          -5.8143   -6.0915   -1.0161 C.ar    1  UNL1       -0.0312
     17 C          -5.9027   -5.0026   -2.0269 C.3     1  UNL1       -0.0385
     18 C          -1.1834    0.1898   -0.0129 C.ar    1  UNL1        0.1292
     19 O          -2.3407    0.9265   -0.0065 O.3     1  UNL1       -0.5060
     20 C          -0.0073    0.9542   -0.0073 C.ar    1  UNL1       -0.0165
     21 H           3.3991    0.5753    0.0033 H       1  UNL1        0.0278
     22 H           2.5106    1.8279    0.8846 H       1  UNL1        0.0278
     23 H           2.5114    1.8135   -0.8965 H       1  UNL1        0.0278
     24 H           2.2616   -1.5680    0.0404 H       1  UNL1        0.0620
     25 H           0.2383   -2.9042    0.0041 H       1  UNL1        0.0626
     26 H          -1.4713   -3.9574   -0.0654 H       1  UNL1        0.1731
     27 H          -4.4030   -3.7053   -0.0684 H       1  UNL1        0.1731
     28 H          -7.1295   -8.8539    0.4368 H       1  UNL1        0.0694
     29 H          -7.7910   -7.0802   -1.3699 H       1  UNL1        0.0626
     30 H          -6.8472   -5.0451   -2.5759 H       1  UNL1        0.0278
     31 H          -5.0809   -5.0935   -2.7441 H       1  UNL1        0.0278
     32 H          -5.8494   -4.0277   -1.5382 H       1  UNL1        0.0278
     33 H          -3.1009    0.3074    0.0005 H       1  UNL1        0.2922
     34 H          -0.0737    2.0414   -0.0120 H       1  UNL1        0.0657
@<TRIPOS>BOND
     1     1     2    1
     2     2     3   ar
     3     3     4   ar
     4     4     5   ar
     5     5     6    1
     6     6     7    2
     7     6     8   am
     8     8     9    1
     9     9    10   am
    10    10    11    2
    11    10    12    1
    12    12    13   ar
    13    13    14   ar
    14    14    15   ar
    15    15    16   ar
    16    12    16   ar
    17    16    17    1
    18     5    18   ar
    19    18    19    1
    20    18    20   ar
    21     2    20   ar
    22     1    21    1
    23     1    22    1
    24     1    23    1
    25     3    24    1
    26     4    25    1
    27     8    26    1
    28     9    27    1
    29    14    28    1
    30    15    29    1
    31    17    30    1
    32    17    31    1
    33    17    32    1
    34    19    33    1
    35    20    34    1
