REMARK  5 active torsions:
REMARK  status: ('A' for Active; 'I' for Inactive)
REMARK    1  A    between atoms: C_2  and  C_4 
REMARK    2  A    between atoms: C_4  and  N_5 
REMARK    3  A    between atoms: C_4  and  C_14 
REMARK       I    between atoms: N_5  and  C_6 
REMARK    4  A    between atoms: C_6  and  C_8 
REMARK       I    between atoms: C_14  and  N_16 
REMARK    5  A    between atoms: N_16  and  C_17 
ROOT
ATOM      1  C   UNL d   1       6.580  -2.209   1.470  0.00  0.00     0.055 A 
ATOM      2  C   UNL d   1       7.289  -3.410   1.310  0.00  0.00     0.031 A 
ATOM      3  C   UNL d   1       8.684  -3.441   1.468  0.00  0.00     0.002 A 
ATOM      4  C   UNL d   1       9.390  -2.268   1.724  0.00  0.00     0.002 A 
ATOM      5  C   UNL d   1       8.701  -1.068   1.874  0.00  0.00     0.025 A 
ATOM      6  C   UNL d   1       7.304  -1.026   1.747  0.00  0.00     0.071 A 
ATOM      7  C   UNL d   1       6.666   0.233   1.990  0.00  0.00     0.102 C 
ATOM      8  N   UNL d   1       6.148   1.256   2.207  0.00  0.00    -0.191 NA
ENDROOT
BRANCH   1   9
ATOM      9  N   UNL d   1       5.152  -2.224   1.403  0.00  0.00    -0.324 N 
ATOM     10  C   UNL d   1       4.467  -1.270   0.661  0.00  0.00     0.245 C 
ATOM     11  O   UNL d   1       5.076  -0.529  -0.116  0.00  0.00    -0.271 OA
ATOM     12  H   UNL d   1       4.658  -3.039   1.746  0.00  0.00     0.169 HD
BRANCH  10  13
ATOM     13  C   UNL d   1       2.909  -1.224   0.771  0.00  0.00     0.180 C 
BRANCH  13  14
ATOM     14  C   UNL d   1       2.421   0.071   0.038  0.00  0.00     0.009 C 
ATOM     15  C   UNL d   1       0.906   0.210  -0.045  0.00  0.00     0.012 C 
ATOM     16  C   UNL d   1       2.923   1.346   0.724  0.00  0.00     0.012 C 
ENDBRANCH  13  14
BRANCH  13  17
ATOM     17  N   UNL d   1       2.368  -2.452   0.158  0.00  0.00    -0.343 N 
ATOM     18  C   UNL d   1       1.017  -2.765   0.128  0.00  0.00     0.252 C 
ATOM     19  O   UNL d   1       0.133  -2.217   0.771  0.00  0.00    -0.268 OA
ATOM     20  H   UNL d   1       3.012  -3.036  -0.362  0.00  0.00     0.163 HD
BRANCH  18  21
ATOM     21  C   UNL d   1       0.631  -3.935  -0.673  0.00  0.00     0.032 A 
ATOM     22  C   UNL d   1      -0.426  -3.926  -1.598  0.00  0.00     0.017 A 
ATOM     23  C   UNL d   1      -0.901  -5.147  -2.089  0.00  0.00     0.001 A 
ATOM     24  C   UNL d   1      -0.272  -6.338  -1.718  0.00  0.00     0.000 A 
ATOM     25  C   UNL d   1       0.780  -6.326  -0.804  0.00  0.00     0.001 A 
ATOM     26  C   UNL d   1       1.224  -5.126  -0.274  0.00  0.00     0.017 A 
ENDBRANCH  18  21
ENDBRANCH  13  17
ENDBRANCH  10  13
ENDBRANCH   1   9
TORSDOF 5
