REMARK  7 active torsions:
REMARK  status: ('A' for Active; 'I' for Inactive)
REMARK       I    between atoms: C_2  and  N_4 
REMARK    1  A    between atoms: N_4  and  C_5 
REMARK    2  A    between atoms: C_5  and  N_7 
REMARK    3  A    between atoms: N_7  and  N_8 
REMARK       I    between atoms: N_8  and  C_9 
REMARK    4  A    between atoms: C_9  and  C_11 
REMARK    5  A    between atoms: C_11  and  C_12 
REMARK    6  A    between atoms: C_12  and  C_13 
REMARK       I    between atoms: C_13  and  N_15 
REMARK    7  A    between atoms: N_15  and  C_16 
ROOT
ATOM      1  N   UNL d   1       6.798   2.183  -1.520  0.00  0.00    -0.268 N 
ATOM      2  C   UNL d   1       7.424   3.179  -2.256  0.00  0.00     0.236 C 
ATOM      3  O   UNL d   1       6.780   4.027  -2.882  0.00  0.00    -0.272 OA
ATOM      4  H   UNL d   1       7.314   1.474  -0.995  0.00  0.00     0.190 HD
ENDROOT
BRANCH   2   5
ATOM      5  C   UNL d   1       8.962   3.157  -2.241  0.00  0.00     0.114 C 
BRANCH   5   6
ATOM      6  C   UNL d   1       9.607   4.293  -3.080  0.00  0.00     0.112 C 
BRANCH   6   7
ATOM      7  C   UNL d   1      11.134   4.230  -3.038  0.00  0.00     0.222 C 
ATOM      8  O   UNL d   1      11.699   3.337  -2.399  0.00  0.00    -0.273 OA
ATOM      9  N   UNL d   1      11.811   5.241  -3.717  0.00  0.00    -0.327 N 
ATOM     10  H   UNL d   1      11.304   6.056  -4.042  0.00  0.00     0.169 HD
BRANCH   9  11
ATOM     11  C   UNL d   1      13.230   5.277  -3.821  0.00  0.00     0.034 A 
ATOM     12  C   UNL d   1      13.927   6.492  -3.785  0.00  0.00     0.029 A 
ATOM     13  C   UNL d   1      15.324   6.511  -3.937  0.00  0.00     0.002 A 
ATOM     14  C   UNL d   1      16.032   5.321  -4.104  0.00  0.00     0.000 A 
ATOM     15  C   UNL d   1      15.344   4.114  -4.150  0.00  0.00     0.002 A 
ATOM     16  C   UNL d   1      13.955   4.096  -4.009  0.00  0.00     0.029 A 
ENDBRANCH   9  11
ENDBRANCH   6   7
ENDBRANCH   5   6
ENDBRANCH   2   5
BRANCH   1  17
ATOM     17  N   UNL d   1       5.342   2.078  -1.442  0.00  0.00    -0.273 N 
ATOM     18  H   UNL d   1       4.839   2.790  -1.968  0.00  0.00     0.189 HD
BRANCH  17  19
ATOM     19  C   UNL d   1       4.770   1.044  -0.677  0.00  0.00     0.193 C 
ATOM     20  S   UNL d   1       5.782  -0.044   0.127  0.00  0.00    -0.039 SA
BRANCH  19  21
ATOM     21  N   UNL d   1       3.353   1.006  -0.648  0.00  0.00    -0.303 N 
ATOM     22  C   UNL d   1       2.558   0.071   0.043  0.00  0.00     0.219 C 
ATOM     23  C   UNL d   1       1.051   0.196  -0.050  0.00  0.00     0.117 C 
ATOM     24  O   UNL d   1       2.996  -0.857   0.728  0.00  0.00    -0.274 OA
ATOM     25  H   UNL d   1       2.854   1.713  -1.171  0.00  0.00     0.171 HD
ENDBRANCH  19  21
ENDBRANCH  17  19
ENDBRANCH   1  17
TORSDOF 7
