@<TRIPOS>MOLECULE
*****
 49 52 0 0 0
SMALL
GASTEIGER

@<TRIPOS>ATOM
      1 O           1.0885   -0.0339   -0.1995 O.2     1  UNL1       -0.2699
      2 C           2.3171    0.0008   -0.0860 C.2     1  UNL1        0.2502
      3 C           3.0213    1.3233   -0.0808 C.ar    1  UNL1        0.0785
      4 C           2.6094    2.3589    0.7732 C.ar    1  UNL1       -0.0427
      5 C           3.3099    3.5856    0.8057 C.ar    1  UNL1       -0.0432
      6 C           4.3988    3.7893   -0.0682 C.ar    1  UNL1       -0.0407
      7 C           4.7995    2.7538   -0.9246 C.ar    1  UNL1       -0.0160
      8 C           4.1080    1.5416   -0.9402 C.ar    1  UNL1        0.1292
      9 O           4.5056    0.5598   -1.8095 O.3     1  UNL1       -0.5060
     10 C           5.1774    5.0882   -0.0810 C.3     1  UNL1       -0.0273
     11 C           4.4184    6.2378    0.5768 C.3     1  UNL1       -0.0488
     12 C           3.9021    5.7829    1.9352 C.3     1  UNL1       -0.0488
     13 C           2.8501    4.6880    1.7392 C.3     1  UNL1       -0.0274
     14 N           3.0971   -1.1474    0.0346 N.am    1  UNL1       -0.2944
     15 C           4.3864   -1.1433    0.7261 C.3     1  UNL1        0.0307
     16 C           4.5204   -2.3705    1.6473 C.3     1  UNL1        0.0280
     17 N           4.3356   -3.5888    0.8425 N.pl3   1  UNL1       -0.3266
     18 C           5.2538   -4.6057    0.7973 C.ar    1  UNL1        0.0410
     19 C           5.7526   -5.0708   -0.4221 C.ar    1  UNL1        0.0231
     20 C           6.5780   -6.1907   -0.4688 C.ar    1  UNL1        0.1712
     21 N           6.9717   -6.7769    0.6706 N.ar    1  UNL1       -0.2171
     22 C           6.6164   -6.2966    1.8714 C.ar    1  UNL1        0.1712
     23 C           5.7283   -5.2256    1.9556 C.ar    1  UNL1        0.0231
     24 C           3.0228   -3.6479    0.1496 C.3     1  UNL1        0.0280
     25 C           2.8053   -2.3829   -0.7132 C.3     1  UNL1        0.0307
     26 H           1.7486    2.2125    1.4238 H       1  UNL1        0.0629
     27 H           5.6512    2.9106   -1.5813 H       1  UNL1        0.0657
     28 H           5.2538    0.8780   -2.3386 H       1  UNL1        0.2922
     29 H           5.4217    5.3703   -1.1121 H       1  UNL1        0.0313
     30 H           6.1240    4.9285    0.4514 H       1  UNL1        0.0313
     31 H           3.5753    6.5427   -0.0570 H       1  UNL1        0.0268
     32 H           5.0731    7.1098    0.6827 H       1  UNL1        0.0268
     33 H           3.4720    6.6276    2.4844 H       1  UNL1        0.0268
     34 H           4.7370    5.3997    2.5372 H       1  UNL1        0.0268
     35 H           1.9413    5.1383    1.3203 H       1  UNL1        0.0313
     36 H           2.5950    4.2675    2.7185 H       1  UNL1        0.0313
     37 H           4.4956   -0.2327    1.3188 H       1  UNL1        0.0480
     38 H           5.1668   -1.1700   -0.0421 H       1  UNL1        0.0480
     39 H           3.7413   -2.3319    2.4194 H       1  UNL1        0.0479
     40 H           5.4955   -2.3406    2.1416 H       1  UNL1        0.0479
     41 H           5.5134   -4.5448   -1.3439 H       1  UNL1        0.0695
     42 H           6.9339   -6.6282   -1.3957 H       1  UNL1        0.1376
     43 H           7.5603   -7.6109    0.6224 H       1  UNL1        0.4522
     44 H           7.0390   -6.7902    2.7403 H       1  UNL1        0.1376
     45 H           5.3752   -4.9046    2.9330 H       1  UNL1        0.0695
     46 H           2.2381   -3.6840    0.9164 H       1  UNL1        0.0479
     47 H           2.9231   -4.5568   -0.4550 H       1  UNL1        0.0479
     48 H           1.8064   -2.3627   -1.1616 H       1  UNL1        0.0480
     49 H           3.5280   -2.4128   -1.5415 H       1  UNL1        0.0480
@<TRIPOS>UNITY_ATOM_ATTR
21 1
charge 1
@<TRIPOS>BOND
     1     1     2    2
     2     2     3    1
     3     3     4   ar
     4     4     5   ar
     5     5     6   ar
     6     6     7   ar
     7     7     8   ar
     8     3     8   ar
     9     8     9    1
    10     6    10    1
    11    10    11    1
    12    11    12    1
    13    12    13    1
    14     5    13    1
    15     2    14   am
    16    14    15    1
    17    15    16    1
    18    16    17    1
    19    17    18    1
    20    18    19   ar
    21    19    20   ar
    22    20    21   ar
    23    21    22   ar
    24    22    23   ar
    25    18    23   ar
    26    17    24    1
    27    24    25    1
    28    14    25    1
    29     4    26    1
    30     7    27    1
    31     9    28    1
    32    10    29    1
    33    10    30    1
    34    11    31    1
    35    11    32    1
    36    12    33    1
    37    12    34    1
    38    13    35    1
    39    13    36    1
    40    15    37    1
    41    15    38    1
    42    16    39    1
    43    16    40    1
    44    19    41    1
    45    20    42    1
    46    21    43    1
    47    22    44    1
    48    23    45    1
    49    24    46    1
    50    24    47    1
    51    25    48    1
    52    25    49    1
