@<TRIPOS>MOLECULE
*****
 52 52 0 0 0
SMALL
GASTEIGER

@<TRIPOS>ATOM
      1 C           1.0707    0.0922   -0.0558 C.3     1  UNL1       -0.0305
      2 C           2.5838    0.1479   -0.0382 C.3     1  UNL1        0.0912
      3 O           3.0268    1.4966    0.2222 O.3     1  UNL1       -0.4507
      4 C           4.3742    1.5511    0.4242 C.2     1  UNL1        0.4005
      5 O           5.0873    0.5609    0.4498 O.2     1  UNL1       -0.2265
      6 N           4.8401    2.8456    0.5473 N.am    1  UNL1       -0.2768
      7 C           6.2860    3.1372    0.4795 C.3     1  UNL1        0.0420
      8 C           6.8702    2.6920   -0.8849 C.3     1  UNL1        0.0316
      9 N           6.6622    1.3330   -1.3064 N.am    1  UNL1       -0.2976
     10 C           7.2959    0.8544   -2.4161 C.2     1  UNL1        0.2999
     11 O           7.9438    1.5508   -3.1872 O.2     1  UNL1       -0.2529
     12 N           7.0889   -0.4799   -2.5936 N.am    1  UNL1       -0.2953
     13 C           7.5602   -1.1363   -3.7898 C.3     1  UNL1        0.0385
     14 C           7.2093   -2.6020   -3.8150 C.ar    1  UNL1       -0.0239
     15 C           5.9244   -3.0429   -3.4616 C.ar    1  UNL1       -0.0567
     16 C           5.6462   -4.4049   -3.3408 C.ar    1  UNL1       -0.0550
     17 C           6.6117   -5.3500   -3.6849 C.ar    1  UNL1        0.0156
     18 C           7.8756   -4.9197   -4.1061 C.ar    1  UNL1        0.2735
     19 N           8.9171   -5.9100   -4.4082 N.pl3   1  UNL1        0.0796
     20 O           8.6224   -7.1089   -4.2981 O.2     1  UNL1        0.0414
     21 O          10.0344   -5.4895   -4.7408 O.co2   1  UNL1       -0.5760
     22 C           8.1765   -3.5520   -4.1782 C.ar    1  UNL1        0.0203
     23 C           6.6170    4.6414    0.7711 C.3     1  UNL1       -0.0306
     24 C           8.1338    5.0185    0.8596 C.3     1  UNL1       -0.0450
     25 C           8.9445    4.8275   -0.4261 C.3     1  UNL1       -0.0626
     26 C           8.3149    6.4998    1.2156 C.3     1  UNL1       -0.0626
     27 H           0.7206   -0.9275   -0.2504 H       1  UNL1        0.0262
     28 H           0.6695    0.7543   -0.8280 H       1  UNL1        0.0262
     29 H           0.6672    0.4225    0.9056 H       1  UNL1        0.0262
     30 H           2.9708   -0.1840   -1.0109 H       1  UNL1        0.0695
     31 H           2.9514   -0.5328    0.7403 H       1  UNL1        0.0695
     32 H           4.1616    3.5942    0.5515 H       1  UNL1        0.1523
     33 H           6.7483    2.5406    1.2768 H       1  UNL1        0.0515
     34 H           7.9384    2.6877   -0.8041 H       1  UNL1        0.0481
     35 H           6.5541    3.3664   -1.6884 H       1  UNL1        0.0481
     36 H           6.4051    0.6713   -0.5795 H       1  UNL1        0.1503
     37 H           6.5986   -0.9942   -1.8769 H       1  UNL1        0.1506
     38 H           8.6481   -1.0023   -3.8241 H       1  UNL1        0.0512
     39 H           7.1308   -0.6286   -4.6601 H       1  UNL1        0.0512
     40 H           5.1373   -2.3194   -3.2527 H       1  UNL1        0.0621
     41 H           4.6814   -4.7270   -2.9561 H       1  UNL1        0.0620
     42 H           6.3661   -6.4074   -3.6157 H       1  UNL1        0.0685
     43 H           9.1645   -3.2193   -4.4943 H       1  UNL1        0.0688
     44 H           6.1503    4.9178    1.7302 H       1  UNL1        0.0286
     45 H           6.1295    5.2801    0.0222 H       1  UNL1        0.0286
     46 H           8.5884    4.4171    1.6574 H       1  UNL1        0.0296
     47 H           8.4088    5.2406   -1.2876 H       1  UNL1        0.0232
     48 H           9.2161    3.7955   -0.6104 H       1  UNL1        0.0232
     49 H           9.9306    5.2937   -0.3638 H       1  UNL1        0.0232
     50 H           7.8828    7.1388    0.4368 H       1  UNL1        0.0232
     51 H           9.3841    6.7428    1.2783 H       1  UNL1        0.0232
     52 H           7.8603    6.7542    2.1747 H       1  UNL1        0.0232
@<TRIPOS>UNITY_ATOM_ATTR
19 1
charge 1
21 1
charge -1
@<TRIPOS>BOND
     1     1     2    1
     2     2     3    1
     3     3     4    1
     4     4     5    2
     5     4     6   am
     6     6     7    1
     7     7     8    1
     8     8     9    1
     9     9    10   am
    10    10    11    2
    11    10    12   am
    12    12    13    1
    13    13    14    1
    14    14    15   ar
    15    15    16   ar
    16    16    17   ar
    17    17    18   ar
    18    18    19    1
    19    19    20    2
    20    19    21    1
    21    18    22   ar
    22    14    22   ar
    23     7    23    1
    24    23    24    1
    25    24    25    1
    26    24    26    1
    27     1    27    1
    28     1    28    1
    29     1    29    1
    30     2    30    1
    31     2    31    1
    32     6    32    1
    33     7    33    1
    34     8    34    1
    35     8    35    1
    36     9    36    1
    37    12    37    1
    38    13    38    1
    39    13    39    1
    40    15    40    1
    41    16    41    1
    42    17    42    1
    43    22    43    1
    44    23    44    1
    45    23    45    1
    46    24    46    1
    47    25    47    1
    48    25    48    1
    49    25    49    1
    50    26    50    1
    51    26    51    1
    52    26    52    1
