REMARK  4 active torsions:
REMARK  status: ('A' for Active; 'I' for Inactive)
REMARK       I    between atoms: C_2  and  N_3 
REMARK    1  A    between atoms: C_2  and  C_18 
REMARK    2  A    between atoms: N_3  and  C_4 
REMARK    3  A    between atoms: C_4  and  C_5 
REMARK    4  A    between atoms: C_21  and  N_22 
ROOT
ATOM      1  C   UNL d   1       3.332   1.149   3.530  0.00  0.00    -0.040 C 
ATOM      2  C   UNL d   1       3.549   2.530   4.005  0.00  0.00     0.011 C 
ATOM      3  C   UNL d   1       4.356   2.855   5.054  0.00  0.00     0.030 C 
ATOM      4  C   UNL d   1       5.046   1.746   5.788  0.00  0.00     0.039 C 
ATOM      5  C   UNL d   1       4.926   0.427   5.165  0.00  0.00    -0.005 C 
ATOM      6  C   UNL d   1       3.994   0.150   4.117  0.00  0.00     0.023 C 
ATOM      7  C   UNL d   1       5.775  -0.339   5.795  0.00  0.00    -0.045 C 
ATOM      8  C   UNL d   1       6.011  -1.780   5.628  0.00  0.00     0.037 C 
ATOM      9  C   UNL d   1       7.185  -2.251   6.520  0.00  0.00     0.004 C 
ATOM     10  C   UNL d   1       6.416  -2.505   7.766  0.00  0.00     0.003 C 
ATOM     11  C   UNL d   1       6.054  -0.825   8.194  0.00  0.00     0.029 C 
ATOM     12  C   UNL d   1       6.400   0.273   6.993  0.00  0.00     0.112 C 
ATOM     13  N   UNL d   1       5.799   1.675   6.843  0.00  0.00    -0.381 N 
ATOM     14  H   UNL d   1       6.185   2.528   7.258  0.00  0.00     0.160 HD
ENDROOT
BRANCH   1  15
ATOM     15  C   UNL d   1       2.344   0.828   2.423  0.00  0.00     0.161 C 
BRANCH  15  16
ATOM     16  N   UNL d   1       3.050   0.390   1.222  0.00  0.00    -0.353 N 
ATOM     17  C   UNL d   1       2.335   0.047   0.083  0.00  0.00     0.251 C 
ATOM     18  O   UNL d   1       1.112   0.080   0.040  0.00  0.00    -0.268 OA
ATOM     19  H   UNL d   1       4.058   0.409   1.195  0.00  0.00     0.163 HD
BRANCH  17  20
ATOM     20  C   UNL d   1       3.099  -0.390  -1.130  0.00  0.00     0.032 A 
ATOM     21  C   UNL d   1       2.650   0.006  -2.403  0.00  0.00     0.019 A 
ATOM     22  C   UNL d   1       3.164  -0.591  -3.567  0.00  0.00     0.037 A 
ATOM     23  C   UNL d   1       4.204  -1.521  -3.462  0.00  0.00     0.102 A 
ATOM     24  C   UNL d   1       4.752  -1.819  -2.205  0.00  0.00     0.037 A 
ATOM     25  C   UNL d   1       4.161  -1.298  -1.040  0.00  0.00     0.019 A 
BRANCH  23  26
ATOM     26  N   UNL d   1       4.687  -2.230  -4.661  0.00  0.00    -0.116 N 
ATOM     27  O   UNL d   1       4.133  -1.982  -5.740  0.00  0.00    -0.532 OA
ATOM     28  O   UNL d   1       5.608  -3.046  -4.511  0.00  0.00    -0.532 OA
ENDBRANCH  23  26
ENDBRANCH  17  20
ENDBRANCH  15  16
ENDBRANCH   1  15
TORSDOF 4
