REMARK  4 active torsions:
REMARK  status: ('A' for Active; 'I' for Inactive)
REMARK       I    between atoms: C_2  and  N_3 
REMARK       I    between atoms: C_2  and  N_12 
REMARK    1  A    between atoms: N_3  and  O_4 
REMARK    2  A    between atoms: O_4  and  C_5 
REMARK    3  A    between atoms: C_5  and  C_6 
REMARK    4  A    between atoms: C_13  and  N_12 
ROOT
ATOM      1  O   UNL d   1       4.517   1.450   0.854  0.00  0.00    -0.245 OA
ATOM      2  C   UNL d   1       5.405   1.121   0.062  0.00  0.00     0.340 C 
ATOM      3  N   UNL d   1       6.359   1.996  -0.461  0.00  0.00    -0.216 N 
ATOM      4  N   UNL d   1       5.554  -0.184  -0.358  0.00  0.00    -0.333 N 
ATOM      5  H   UNL d   1       6.986   1.801  -1.232  0.00  0.00     0.199 HD
ATOM      6  H   UNL d   1       6.059  -0.208  -1.228  0.00  0.00     0.165 HD
ENDROOT
BRANCH   3   7
ATOM      7  O   UNL d   1       6.277   3.344   0.012  0.00  0.00    -0.272 OA
BRANCH   7   8
ATOM      8  C   UNL d   1       7.299   4.188  -0.548  0.00  0.00     0.240 C 
BRANCH   8   9
ATOM      9  C   UNL d   1       7.317   5.561   0.108  0.00  0.00    -0.032 A 
ATOM     10  C   UNL d   1       7.487   6.728  -0.658  0.00  0.00     0.009 A 
ATOM     11  C   UNL d   1       7.677   7.971  -0.042  0.00  0.00     0.001 A 
ATOM     12  C   UNL d   1       7.630   8.078   1.346  0.00  0.00     0.000 A 
ATOM     13  C   UNL d   1       7.433   6.936   2.119  0.00  0.00     0.001 A 
ATOM     14  C   UNL d   1       7.291   5.686   1.506  0.00  0.00     0.009 A 
ENDBRANCH   8   9
ENDBRANCH   7   8
ENDBRANCH   3   7
BRANCH   4  15
ATOM     15  C   UNL d   1       4.512  -1.240  -0.291  0.00  0.00     0.120 C 
ATOM     16  C   UNL d   1       3.864  -1.791   1.034  0.00  0.00     0.035 C 
ATOM     17  C   UNL d   1       3.705  -3.336   0.906  0.00  0.00     0.041 C 
ATOM     18  C   UNL d   1       4.515  -3.663  -0.300  0.00  0.00    -0.048 A 
ATOM     19  C   UNL d   1       4.813  -4.941  -0.761  0.00  0.00     0.031 A 
ATOM     20  C   UNL d   1       5.039  -2.521  -0.911  0.00  0.00    -0.029 A 
ATOM     21  C   UNL d   1       5.749  -5.072  -1.782  0.00  0.00     0.034 A 
ATOM     22 CL   UNL d   1       6.318  -6.634  -2.228  0.00  0.00    -0.084 Cl
ATOM     23  C   UNL d   1       6.295  -3.942  -2.396  0.00  0.00     0.024 A 
ATOM     24  C   UNL d   1       5.932  -2.662  -1.969  0.00  0.00     0.011 A 
ENDBRANCH   4  15
TORSDOF 4
