@<TRIPOS>MOLECULE
*****
 48 52 0 0 0
SMALL
GASTEIGER

@<TRIPOS>ATOM
      1 F           2.1903   -0.0951   -0.0103 F       1  UNL1       -0.2048
      2 C           0.8515   -0.0530   -0.0798 C.ar    1  UNL1        0.1326
      3 C           0.1392   -1.2429   -0.0180 C.ar    1  UNL1       -0.0258
      4 C          -1.2559   -1.2157   -0.0026 C.ar    1  UNL1       -0.0590
      5 C          -1.9365    0.0019   -0.0193 C.ar    1  UNL1       -0.0610
      6 C          -1.2196    1.1953   -0.0877 C.ar    1  UNL1       -0.0497
      7 C           0.1821    1.1659   -0.1445 C.ar    1  UNL1        0.0377
      8 C           0.9392    2.3974   -0.1525 C.ar    1  UNL1        0.1037
      9 N           1.7795    2.7463   -1.1368 N.ar    1  UNL1       -0.1731
     10 N           2.3033    3.9137   -0.7416 N.ar    1  UNL1       -0.2804
     11 C           1.8201    4.3109    0.4566 C.ar    1  UNL1        0.0499
     12 C           0.9070    3.3686    0.8599 C.ar    1  UNL1        0.0455
     13 C           0.1080    3.4035    2.0843 C.3     1  UNL1       -0.0018
     14 N           0.2850    4.6675    2.8899 N.4     1  UNL1        0.2421
     15 C          -1.0674    5.3775    3.0526 C.3     1  UNL1       -0.0055
     16 C          -1.0380    6.6593    3.8578 C.ar    1  UNL1        0.0008
     17 C          -1.7507    6.7480    5.0531 C.ar    1  UNL1       -0.0499
     18 C          -1.7139    7.9300    5.8057 C.ar    1  UNL1       -0.0158
     19 C          -0.9268    9.0114    5.4020 C.ar    1  UNL1        0.1621
     20 C          -0.1961    8.9219    4.2362 C.ar    1  UNL1        0.1625
     21 C          -0.3351    7.8092    3.4416 C.ar    1  UNL1       -0.0081
     22 O           0.6640    9.8685    3.7546 O.3     1  UNL1       -0.4849
     23 C           0.9316   10.8653    4.7403 C.3     1  UNL1        0.1237
     24 C          -0.3637   11.2555    5.4353 C.3     1  UNL1        0.1237
     25 O          -0.9209   10.1450    6.1640 O.3     1  UNL1       -0.4849
     26 C           1.3365    5.6521    2.4285 C.3     1  UNL1       -0.0257
     27 C           2.1667    5.5239    1.1630 C.3     1  UNL1        0.0298
     28 H           0.6802   -2.1827    0.0164 H       1  UNL1        0.0646
     29 H          -1.8135   -2.1490    0.0176 H       1  UNL1        0.0618
     30 H          -3.0241    0.0170    0.0017 H       1  UNL1        0.0618
     31 H          -1.7652    2.1358   -0.1088 H       1  UNL1        0.0625
     32 H           2.9806    4.3838   -1.3482 H       1  UNL1        0.1885
     33 H           0.3475    2.5648    2.7475 H       1  UNL1        0.0868
     34 H          -0.9549    3.3281    1.8261 H       1  UNL1        0.0868
     35 H           0.5662    4.3609    3.8293 H       1  UNL1        0.2040
     36 H          -1.7343    4.6419    3.5216 H       1  UNL1        0.0867
     37 H          -1.4443    5.5821    2.0431 H       1  UNL1        0.0867
     38 H          -2.3709    5.9213    5.3966 H       1  UNL1        0.0623
     39 H          -2.3151    8.0083    6.7068 H       1  UNL1        0.0655
     40 H           0.1646    7.9450    2.4900 H       1  UNL1        0.0660
     41 H           1.3681   11.7232    4.2192 H       1  UNL1        0.0731
     42 H           1.6777   10.4710    5.4408 H       1  UNL1        0.0731
     43 H          -1.1048   11.5993    4.7010 H       1  UNL1        0.0731
     44 H          -0.1765   12.0585    6.1494 H       1  UNL1        0.0731
     45 H           1.8893    6.0065    3.3034 H       1  UNL1        0.0818
     46 H           0.7089    6.4140    2.0290 H       1  UNL1        0.0818
     47 H           3.2282    5.6199    1.3958 H       1  UNL1        0.0380
     48 H           1.9240    6.3888    0.5188 H       1  UNL1        0.0380
@<TRIPOS>UNITY_ATOM_ATTR
14 1
charge 1
@<TRIPOS>BOND
     1     1     2    1
     2     2     3   ar
     3     3     4   ar
     4     4     5   ar
     5     5     6   ar
     6     6     7   ar
     7     2     7   ar
     8     7     8    1
     9     8     9   ar
    10     9    10   ar
    11    10    11   ar
    12    11    12   ar
    13     8    12   ar
    14    12    13    1
    15    13    14    1
    16    14    15    1
    17    15    16    1
    18    16    17   ar
    19    17    18   ar
    20    18    19   ar
    21    19    20   ar
    22    20    21   ar
    23    16    21   ar
    24    20    22    1
    25    22    23    1
    26    23    24    1
    27    24    25    1
    28    19    25    1
    29    14    26    1
    30    26    27    1
    31    11    27    1
    32     3    28    1
    33     4    29    1
    34     5    30    1
    35     6    31    1
    36    10    32    1
    37    13    33    1
    38    13    34    1
    39    14    35    1
    40    15    36    1
    41    15    37    1
    42    17    38    1
    43    18    39    1
    44    21    40    1
    45    23    41    1
    46    23    42    1
    47    24    43    1
    48    24    44    1
    49    26    45    1
    50    26    46    1
    51    27    47    1
    52    27    48    1
