REMARK  7 active torsions:
REMARK  status: ('A' for Active; 'I' for Inactive)
REMARK    1  A    between atoms: C_2  and  O_3 
REMARK    2  A    between atoms: O_3  and  C_4 
REMARK    3  A    between atoms: C_6  and  C_7 
REMARK    4  A    between atoms: C_7  and  N_8 
REMARK       I    between atoms: N_8  and  C_9 
REMARK       I    between atoms: C_9  and  N_11 
REMARK    5  A    between atoms: N_11  and  N_12 
REMARK       I    between atoms: N_12  and  C_13 
REMARK    6  A    between atoms: C_13  and  C_15 
REMARK    7  A    between atoms: C_15  and  C_16 
ROOT
ATOM      1  N   UNL d   1       6.879   1.972   1.890  0.00  0.00    -0.338 N 
ATOM      2  C   UNL d   1       7.565   3.107   2.253  0.00  0.00     0.335 C 
ATOM      3  O   UNL d   1       8.786   3.138   2.406  0.00  0.00    -0.246 OA
ATOM      4  N   UNL d   1       6.760   4.223   2.430  0.00  0.00    -0.249 N 
ATOM      5  H   UNL d   1       5.882   2.055   1.807  0.00  0.00     0.164 HD
ATOM      6  H   UNL d   1       5.749   4.229   2.318  0.00  0.00     0.192 HD
ENDROOT
BRANCH   1   7
ATOM      7  C   UNL d   1       7.531   0.675   1.655  0.00  0.00     0.163 C 
BRANCH   7   8
ATOM      8  C   UNL d   1       6.616  -0.474   1.254  0.00  0.00    -0.035 A 
ATOM      9  C   UNL d   1       5.232  -0.324   1.125  0.00  0.00     0.066 A 
ATOM     10  C   UNL d   1       4.432  -1.389   0.729  0.00  0.00     0.164 A 
ATOM     11  N   UNL d   1       4.920  -2.623   0.507  0.00  0.00    -0.237 NA
ATOM     12  C   UNL d   1       6.255  -2.782   0.649  0.00  0.00     0.120 A 
ATOM     13  C   UNL d   1       7.131  -1.756   1.004  0.00  0.00     0.028 A 
BRANCH  10  14
ATOM     14  O   UNL d   1       3.066  -1.270   0.627  0.00  0.00    -0.335 OA
BRANCH  14  15
ATOM     15  C   UNL d   1       2.626  -0.085  -0.045  0.00  0.00     0.173 C 
ATOM     16  C   UNL d   1       1.108  -0.062  -0.051  0.00  0.00     0.034 C 
ENDBRANCH  14  15
ENDBRANCH  10  14
ENDBRANCH   7   8
ENDBRANCH   1   7
BRANCH   4  17
ATOM     17  N   UNL d   1       7.346   5.472   2.811  0.00  0.00    -0.266 N 
ATOM     18  C   UNL d   1       6.529   6.583   2.955  0.00  0.00     0.236 C 
ATOM     19  O   UNL d   1       5.316   6.503   2.753  0.00  0.00    -0.272 OA
ATOM     20  H   UNL d   1       8.357   5.475   2.933  0.00  0.00     0.190 HD
BRANCH  18  21
ATOM     21  C   UNL d   1       7.226   7.899   3.373  0.00  0.00     0.109 C 
BRANCH  21  22
ATOM     22  C   UNL d   1       6.208   9.057   3.580  0.00  0.00    -0.006 C 
ATOM     23  C   UNL d   1       5.396   8.813   4.865  0.00  0.00     0.005 C 
ATOM     24  C   UNL d   1       4.352   9.895   5.109  0.00  0.00     0.000 C 
ATOM     25  C   UNL d   1       4.987  11.277   5.157  0.00  0.00     0.000 C 
ATOM     26  C   UNL d   1       5.786  11.549   3.886  0.00  0.00     0.000 C 
ATOM     27  C   UNL d   1       6.847  10.463   3.638  0.00  0.00     0.005 C 
ENDBRANCH  21  22
ENDBRANCH  18  21
ENDBRANCH   4  17
TORSDOF 7
