@<TRIPOS>MOLECULE
*****
 46 48 0 0 0
SMALL
GASTEIGER

@<TRIPOS>ATOM
      1 C           3.1193   -0.3872    1.3385 C.3     1  UNL1       -0.0444
      2 C           2.5893   -0.0364   -0.0490 C.3     1  UNL1        0.0860
      3 S           0.7210    0.0352   -0.0588 S.3     1  UNL1       -0.0737
      4 C           0.2850    1.2182    1.1275 C.ar    1  UNL1        0.1900
      5 N           1.0639    1.9337    1.8990 N.ar    1  UNL1       -0.1224
      6 N           0.2594    2.6950    2.7230 N.ar    1  UNL1       -0.1284
      7 C          -1.0032    2.4320    2.4386 C.ar    1  UNL1        0.1650
      8 C          -2.1809    3.0193    3.0747 C.ar    1  UNL1        0.0542
      9 C          -2.3430    4.4128    3.1237 C.ar    1  UNL1       -0.0483
     10 C          -3.4725    4.9830    3.7281 C.ar    1  UNL1       -0.0609
     11 C          -4.4402    4.1689    4.3159 C.ar    1  UNL1       -0.0590
     12 C          -4.2739    2.7852    4.3058 C.ar    1  UNL1       -0.0257
     13 C          -3.1557    2.2232    3.6849 C.ar    1  UNL1        0.1340
     14 F          -3.0266    0.8878    3.6939 F       1  UNL1       -0.2047
     15 N          -1.0228    1.5205    1.4038 N.ar    1  UNL1       -0.3162
     16 C           3.0891   -1.1024   -1.0918 C.2     1  UNL1        0.2265
     17 O           2.3272   -1.7928   -1.7795 O.2     1  UNL1       -0.2746
     18 N           4.4605   -1.2570   -1.2416 N.am    1  UNL1       -0.3058
     19 C           5.0533   -2.2437   -2.1712 C.3     1  UNL1        0.0885
     20 C           6.5978   -2.2238   -2.1130 C.2     1  UNL1        0.2344
     21 O           7.1697   -1.4323   -1.3551 O.2     1  UNL1       -0.2737
     22 N           7.2756   -3.0988   -2.9678 N.am    1  UNL1       -0.2818
     23 C           8.7035   -3.1505   -3.0116 C.ar    1  UNL1        0.0721
     24 C           9.4503   -3.1107   -1.8260 C.ar    1  UNL1       -0.0348
     25 C          10.8490   -3.1275   -1.8517 C.ar    1  UNL1       -0.0217
     26 C          11.5141   -3.1773   -3.0697 C.ar    1  UNL1        0.1614
     27 F          12.8546   -3.1716   -3.0835 F       1  UNL1       -0.2024
     28 C          10.7957   -3.2357   -4.2570 C.ar    1  UNL1        0.1952
     29 F          11.4524   -3.2668   -5.4269 F       1  UNL1       -0.1994
     30 C           9.3972   -3.2455   -4.2288 C.ar    1  UNL1        0.1823
     31 F           8.7187   -3.2728   -5.3872 F       1  UNL1       -0.2004
     32 H           4.2139   -0.3980    1.3487 H       1  UNL1        0.0245
     33 H           2.7781   -1.3779    1.6555 H       1  UNL1        0.0245
     34 H           2.8215    0.3357    2.1012 H       1  UNL1        0.0245
     35 H           2.9602    0.9447   -0.3680 H       1  UNL1        0.0509
     36 H          -1.5893    5.0670    2.6883 H       1  UNL1        0.0625
     37 H          -3.5936    6.0648    3.7449 H       1  UNL1        0.0618
     38 H          -5.3156    4.6120    4.7866 H       1  UNL1        0.0618
     39 H          -5.0069    2.1398    4.7812 H       1  UNL1        0.0646
     40 H          -1.8407    1.1586    0.9374 H       1  UNL1        0.1694
     41 H           5.1188   -0.6912   -0.7115 H       1  UNL1        0.1492
     42 H           4.7168   -2.0046   -3.1848 H       1  UNL1        0.0558
     43 H           4.6923   -3.2384   -1.8909 H       1  UNL1        0.0558
     44 H           6.7813   -3.4898   -3.7656 H       1  UNL1        0.1549
     45 H           8.9483   -3.0861   -0.8617 H       1  UNL1        0.0638
     46 H          11.4164   -3.0947   -0.9262 H       1  UNL1        0.0648
@<TRIPOS>BOND
     1     3     4    1
     2     4     5   ar
     3     5     6   ar
     4     6     7   ar
     5     7     8    1
     6     8     9   ar
     7     9    10   ar
     8    10    11   ar
     9    11    12   ar
    10    12    13   ar
    11     8    13   ar
    12    13    14    1
    13     7    15   ar
    14     4    15   ar
    15     2    16    1
    16    16    17    2
    17    16    18   am
    18    18    19    1
    19    19    20    1
    20    20    21    2
    21    20    22   am
    22    22    23    1
    23    23    24   ar
    24    24    25   ar
    25    25    26   ar
    26    26    27    1
    27    26    28   ar
    28    28    29    1
    29    28    30   ar
    30    23    30   ar
    31    30    31    1
    32     2     3    1
    33     2     1    1
    34     1    32    1
    35     1    33    1
    36     1    34    1
    37     2    35    1
    38     9    36    1
    39    10    37    1
    40    11    38    1
    41    12    39    1
    42    15    40    1
    43    18    41    1
    44    19    42    1
    45    19    43    1
    46    22    44    1
    47    24    45    1
    48    25    46    1
