REMARK  4 active torsions:
REMARK  status: ('A' for Active; 'I' for Inactive)
REMARK    1  A    between atoms: C_4  and  C_5 
REMARK    2  A    between atoms: C_13  and  C_14 
REMARK    3  A    between atoms: N_24  and  C_25 
REMARK    4  A    between atoms: C_30  and  C_31 
ROOT
ATOM      1  C   UNL d   1       0.926  -0.270  -0.205  0.00  0.00     0.063 C 
ATOM      2  C   UNL d   1       2.499  -0.328  -0.546  0.00  0.00     0.004 C 
ATOM      3  C   UNL d   1       3.108   0.794  -0.987  0.00  0.00    -0.008 C 
ATOM      4  C   UNL d   1       2.498   2.075  -1.463  0.00  0.00     0.126 C 
ATOM      5  C   UNL d   1       3.083   2.240  -2.812  0.00  0.00     0.026 C 
ATOM      6  C   UNL d   1       4.298   1.729  -3.111  0.00  0.00     0.018 C 
ATOM      7  C   UNL d   1       4.826   1.819  -4.489  0.00  0.00     0.067 C 
ATOM      8  C   UNL d   1       3.883   2.434  -5.540  0.00  0.00     0.038 C 
ATOM      9  C   UNL d   1       2.587   3.124  -5.124  0.00  0.00     0.094 C 
ATOM     10  C   UNL d   1       2.166   2.921  -3.730  0.00  0.00     0.159 C 
ATOM     11  O   UNL d   1       1.089   3.368  -3.330  0.00  0.00    -0.293 OA
ATOM     12  N   UNL d   1       5.101   1.053  -2.154  0.00  0.00    -0.371 N 
ATOM     13  C   UNL d   1       4.641   0.891  -0.758  0.00  0.00     0.210 C 
ATOM     14  N   UNL d   1       5.004  -0.321   0.127  0.00  0.00    -0.185 NA
ATOM     15  N   UNL d   1       3.571  -1.164   0.004  0.00  0.00    -0.222 NA
ATOM     16  H   UNL d   1       5.746   0.340  -2.490  0.00  0.00     0.161 HD
ATOM     17  H   UNL d   1       3.296  -1.587   0.908  0.00  0.00     0.147 HD
ENDROOT
BRANCH  14  18
ATOM     18  C   UNL d   1       5.301   0.124   1.589  0.00  0.00     0.045 C 
ATOM     19  C   UNL d   1       6.466   0.465   2.328  0.00  0.00     0.026 C 
ATOM     20  C   UNL d   1       6.386   0.490   3.800  0.00  0.00     0.002 C 
ATOM     21  C   UNL d   1       5.192   0.296   4.521  0.00  0.00     0.001 C 
ATOM     22  C   UNL d   1       4.071   0.106   3.804  0.00  0.00     0.020 C 
ATOM     23  C   UNL d   1       4.172   0.116   2.420  0.00  0.00     0.063 C 
BRANCH  23  24
ATOM     24  C   UNL d   1       2.972   0.668   1.873  0.00  0.00     0.211 C 
ATOM     25  O   UNL d   1       1.895   0.062   2.260  0.00  0.00    -0.644 OA
ATOM     26  O   UNL d   1       3.102   1.707   1.217  0.00  0.00    -0.644 OA
ENDBRANCH  23  24
ENDBRANCH  14  18
BRANCH   4  27
ATOM     27  C   UNL d   1       2.711   3.400  -0.683  0.00  0.00     0.094 A 
ATOM     28  N   UNL d   1       3.872   4.079  -0.511  0.00  0.00    -0.354 N 
ATOM     29  C   UNL d   1       3.675   5.292   0.096  0.00  0.00     0.106 A 
ATOM     30  H   UNL d   1       4.771   3.676  -0.738  0.00  0.00     0.166 HD
ATOM     31  C   UNL d   1       2.329   5.442   0.220  0.00  0.00     0.106 A 
ATOM     32  N   UNL d   1       1.766   4.288  -0.277  0.00  0.00    -0.354 N 
ATOM     33  H   UNL d   1       0.772   4.082  -0.324  0.00  0.00     0.166 HD
ENDBRANCH   4  27
BRANCH   8  34
ATOM     34  C   UNL d   1       3.499   1.319  -6.457  0.00  0.00    -0.013 A 
ATOM     35  C   UNL d   1       2.780   0.195  -6.102  0.00  0.00     0.015 A 
ATOM     36  C   UNL d   1       2.673  -0.711  -7.178  0.00  0.00     0.008 A 
ATOM     37  C   UNL d   1       3.285  -0.230  -8.313  0.00  0.00     0.050 A 
ATOM     38  S   UNL d   1       3.977   1.315  -8.086  0.00  0.00    -0.106 SA
ENDBRANCH   8  34
TORSDOF 4
