REMARK  6 active torsions:
REMARK  status: ('A' for Active; 'I' for Inactive)
REMARK       I    between atoms: N_6  and  C_7 
REMARK    1  A    between atoms: C_7  and  C_9 
REMARK    2  A    between atoms: C_11  and  N_12 
REMARK    3  A    between atoms: N_12  and  S_13 
REMARK    4  A    between atoms: S_13  and  C_16 
REMARK    5  A    between atoms: C_20  and  N_21 
REMARK    6  A    between atoms: C_27  and  O_28 
ROOT
ATOM      1  C   UNL d   1       3.180   2.096  -1.369  0.00  0.00     0.067 A 
ATOM      2  C   UNL d   1       4.122   3.088  -0.989  0.00  0.00     0.050 A 
ATOM      3  C   UNL d   1       5.473   2.986  -1.384  0.00  0.00     0.043 A 
ATOM      4  C   UNL d   1       5.843   1.894  -2.176  0.00  0.00     0.033 A 
ATOM      5  C   UNL d   1       4.915   0.933  -2.583  0.00  0.00     0.040 A 
ATOM      6  C   UNL d   1       3.586   1.044  -2.198  0.00  0.00     0.081 A 
ENDROOT
BRANCH   3   7
ATOM      7  N   UNL d   1       6.446   3.970  -0.962  0.00  0.00    -0.281 N 
ATOM      8  H   UNL d   1       6.146   4.764  -0.401  0.00  0.00     0.179 HD
BRANCH   7   9
ATOM      9  S   UNL d   1       8.079   3.856  -1.423  0.00  0.00     0.263 S 
ATOM     10  O   UNL d   1       8.639   2.689  -0.781  0.00  0.00    -0.200 OA
ATOM     11  O   UNL d   1       8.165   4.034  -2.860  0.00  0.00    -0.200 OA
BRANCH   9  12
ATOM     12  C   UNL d   1       8.861   5.283  -0.700  0.00  0.00     0.082 A 
ATOM     13  C   UNL d   1       9.847   5.142   0.288  0.00  0.00     0.025 A 
ATOM     14  C   UNL d   1      10.359   6.278   0.926  0.00  0.00     0.004 A 
ATOM     15  C   UNL d   1       9.960   7.552   0.516  0.00  0.00     0.036 A 
ATOM     16  C   UNL d   1       9.028   7.681  -0.524  0.00  0.00     0.104 A 
ATOM     17  C   UNL d   1       8.484   6.550  -1.147  0.00  0.00     0.061 A 
BRANCH  16  18
ATOM     18  N   UNL d   1       8.553   9.013  -0.916  0.00  0.00    -0.116 N 
ATOM     19  O   UNL d   1       9.011   9.991  -0.311  0.00  0.00    -0.532 OA
ATOM     20  O   UNL d   1       7.695   9.072  -1.808  0.00  0.00    -0.532 OA
ENDBRANCH  16  18
ENDBRANCH   9  12
ENDBRANCH   7   9
ENDBRANCH   3   7
BRANCH   1  21
ATOM     21  C   UNL d   1       1.751   2.203  -0.942  0.00  0.00     0.256 C 
ATOM     22  N   UNL d   1       1.157   1.170  -0.199  0.00  0.00    -0.348 N 
ATOM     23  C   UNL d   1       1.837  -0.033   0.282  0.00  0.00     0.126 C 
ATOM     24  C   UNL d   1      -0.260   1.249   0.177  0.00  0.00     0.130 C 
ATOM     25  C   UNL d   1       1.114  -1.298  -0.183  0.00  0.00     0.020 C 
ATOM     26  C   UNL d   1      -0.367  -1.268   0.190  0.00  0.00     0.007 C 
ATOM     27  C   UNL d   1      -1.030   0.016  -0.333  0.00  0.00    -0.001 C 
ATOM     28  C   UNL d   1      -2.502   0.062   0.074  0.00  0.00     0.011 C 
ATOM     29  O   UNL d   1       1.153   3.230  -1.262  0.00  0.00    -0.267 OA
ENDBRANCH   1  21
BRANCH   6  30
ATOM     30  O   UNL d   1       2.682   0.116  -2.630  0.00  0.00    -0.360 OA
ATOM     31  H   UNL d   1       3.136  -0.605  -3.095  0.00  0.00     0.217 HD
ENDBRANCH   6  30
TORSDOF 6
