REMARK  4 active torsions:
REMARK  status: ('A' for Active; 'I' for Inactive)
REMARK       I    between atoms: C_2  and  N_3 
REMARK    1  A    between atoms: C_2  and  C_13 
REMARK    2  A    between atoms: N_3  and  N_4 
REMARK    3  A    between atoms: N_4  and  C_5 
REMARK    4  A    between atoms: C_22  and  O_23 
ROOT
ATOM      1  O   UNL d   1       0.987  -0.202  -0.011  0.00  0.00    -0.266 OA
ATOM      2  C   UNL d   1       2.220  -0.135   0.010  0.00  0.00     0.272 C 
ATOM      3  N   UNL d   1       2.991  -0.883   0.894  0.00  0.00    -0.265 N 
ATOM      4  H   UNL d   1       4.004  -0.903   0.880  0.00  0.00     0.190 HD
ENDROOT
BRANCH   2   5
ATOM      5  C   UNL d   1       2.941   0.762  -0.950  0.00  0.00     0.067 A 
ATOM      6  C   UNL d   1       3.978   0.281  -1.769  0.00  0.00     0.032 A 
ATOM      7  C   UNL d   1       4.591   1.112  -2.743  0.00  0.00    -0.025 A 
ATOM      8  C   UNL d   1       5.620   0.646  -3.584  0.00  0.00     0.012 A 
ATOM      9  C   UNL d   1       4.156   2.451  -2.892  0.00  0.00    -0.023 A 
ATOM     10  C   UNL d   1       6.222   1.481  -4.532  0.00  0.00     0.001 A 
ATOM     11  C   UNL d   1       5.806   2.800  -4.660  0.00  0.00     0.001 A 
ATOM     12  C   UNL d   1       4.775   3.281  -3.850  0.00  0.00     0.012 A 
ATOM     13  C   UNL d   1       3.113   2.922  -2.076  0.00  0.00     0.049 A 
ATOM     14  C   UNL d   1       2.521   2.088  -1.118  0.00  0.00     0.082 A 
BRANCH  14  15
ATOM     15  O   UNL d   1       1.541   2.596  -0.309  0.00  0.00    -0.360 OA
ATOM     16  H   UNL d   1       1.279   3.481  -0.610  0.00  0.00     0.217 HD
ENDBRANCH  14  15
ENDBRANCH   2   5
BRANCH   3  17
ATOM     17  N   UNL d   1       2.318  -1.744   1.777  0.00  0.00    -0.295 N 
ATOM     18  H   UNL d   1       1.310  -1.860   1.655  0.00  0.00     0.187 HD
BRANCH  17  19
ATOM     19  C   UNL d   1       3.042  -2.520   2.691  0.00  0.00     0.086 A 
ATOM     20  C   UNL d   1       4.127  -1.978   3.394  0.00  0.00     0.037 A 
ATOM     21  C   UNL d   1       4.887  -2.763   4.269  0.00  0.00     0.045 A 
ATOM     22  C   UNL d   1       4.585  -4.109   4.431  0.00  0.00     0.119 A 
ATOM     23  F   UNL d   1       5.335  -4.859   5.250  0.00  0.00    -0.206 F 
ATOM     24  C   UNL d   1       3.521  -4.683   3.752  0.00  0.00     0.086 A 
ATOM     25  C   UNL d   1       2.754  -3.885   2.900  0.00  0.00     0.147 A 
ATOM     26  F   UNL d   1       1.732  -4.463   2.248  0.00  0.00    -0.204 F 
ENDBRANCH  17  19
ENDBRANCH   3  17
TORSDOF 4
