REMARK  6 active torsions:
REMARK  status: ('A' for Active; 'I' for Inactive)
REMARK    1  A    between atoms: C_2  and  C_3 
REMARK       I    between atoms: C_2  and  N_10 
REMARK    2  A    between atoms: C_3  and  C_4 
REMARK    3  A    between atoms: N_10  and  N_11 
REMARK    4  A    between atoms: N_11  and  C_12 
REMARK    5  A    between atoms: N_15  and  S_16 
REMARK    6  A    between atoms: S_16  and  C_19 
ROOT
ATOM      1  C   UNL d   1       4.984  -1.592   1.981  0.00  0.00     0.101 A 
ATOM      2  C   UNL d   1       4.574  -2.843   2.176  0.00  0.00     0.068 A 
ATOM      3  C   UNL d   1       5.077  -3.780   3.201  0.00  0.00     0.079 A 
ATOM      4  N   UNL d   1       4.615  -4.980   3.382  0.00  0.00    -0.160 NA
ATOM      5  C   UNL d   1       6.171  -3.218   4.058  0.00  0.00    -0.015 A 
ATOM      6  C   UNL d   1       6.628  -1.962   3.863  0.00  0.00     0.007 A 
ATOM      7  C   UNL d   1       7.731  -1.358   4.686  0.00  0.00     0.070 C 
ATOM      8  C   UNL d   1       8.520  -2.377   5.452  0.00  0.00    -0.026 C 
ATOM      9  C   UNL d   1       8.080  -3.628   5.651  0.00  0.00    -0.026 C 
ATOM     10  C   UNL d   1       6.755  -4.117   5.123  0.00  0.00     0.068 C 
ATOM     11  C   UNL d   1       6.098  -1.067   2.801  0.00  0.00     0.207 A 
ATOM     12  O   UNL d   1       6.540   0.068   2.618  0.00  0.00    -0.285 OA
ENDROOT
BRANCH   1  13
ATOM     13  N   UNL d   1       4.348  -0.771   1.077  0.00  0.00    -0.294 N 
ATOM     14  H   UNL d   1       4.925  -0.119   0.546  0.00  0.00     0.187 HD
BRANCH  13  15
ATOM     15  N   UNL d   1       2.969  -0.829   0.936  0.00  0.00    -0.269 N 
ATOM     16  C   UNL d   1       2.224  -0.069   0.084  0.00  0.00     0.240 C 
ATOM     17  O   UNL d   1       1.000  -0.104   0.212  0.00  0.00    -0.272 OA
ATOM     18  H   UNL d   1       2.434  -1.295   1.668  0.00  0.00     0.190 HD
BRANCH  16  19
ATOM     19  C   UNL d   1       2.966   0.736  -0.970  0.00  0.00     0.143 C 
BRANCH  19  20
ATOM     20  C   UNL d   1       2.038   1.475  -1.902  0.00  0.00    -0.049 A 
ATOM     21  C   UNL d   1       2.143   2.861  -2.059  0.00  0.00     0.007 A 
ATOM     22  C   UNL d   1       1.180   3.553  -2.792  0.00  0.00     0.001 A 
ATOM     23  C   UNL d   1       0.161   2.860  -3.444  0.00  0.00     0.000 A 
ATOM     24  C   UNL d   1       0.078   1.475  -3.334  0.00  0.00     0.001 A 
ATOM     25  C   UNL d   1       1.016   0.785  -2.572  0.00  0.00     0.007 A 
ENDBRANCH  19  20
ENDBRANCH  16  19
ENDBRANCH  13  15
ENDBRANCH   1  13
BRANCH   4  26
ATOM     26  S   UNL d   1       3.412  -5.512   2.407  0.00  0.00     0.283 S 
ATOM     27  O   UNL d   1       2.211  -4.756   2.688  0.00  0.00    -0.198 OA
ATOM     28  O   UNL d   1       3.939  -5.561   1.050  0.00  0.00    -0.198 OA
BRANCH  26  29
ATOM     29  C   UNL d   1       3.103  -7.178   2.887  0.00  0.00     0.081 A 
ATOM     30  C   UNL d   1       2.728  -7.462   4.200  0.00  0.00     0.025 A 
ATOM     31  C   UNL d   1       2.660  -8.794   4.602  0.00  0.00     0.002 A 
ATOM     32  C   UNL d   1       2.873  -9.819   3.675  0.00  0.00     0.000 A 
ATOM     33  C   UNL d   1       3.181  -9.521   2.348  0.00  0.00     0.002 A 
ATOM     34  C   UNL d   1       3.299  -8.196   1.950  0.00  0.00     0.025 A 
ENDBRANCH  26  29
ENDBRANCH   4  26
TORSDOF 6
