REMARK  6 active torsions:
REMARK  status: ('A' for Active; 'I' for Inactive)
REMARK       I    between atoms: C_2  and  N_4 
REMARK    1  A    between atoms: N_4  and  C_5 
REMARK    2  A    between atoms: C_8  and  C_9 
REMARK       I    between atoms: C_9  and  N_11 
REMARK    3  A    between atoms: N_11  and  N_12 
REMARK       I    between atoms: N_12  and  C_13 
REMARK    4  A    between atoms: C_13  and  C_15 
REMARK    5  A    between atoms: C_15  and  O_16 
REMARK    6  A    between atoms: O_16  and  C_17 
ROOT
ATOM      1  C   UNL d   1       9.099  -0.799   1.165  0.00  0.00     0.270 C 
ATOM      2  O   UNL d   1       9.711  -1.863   1.319  0.00  0.00    -0.266 OA
ATOM      3  N   UNL d   1       9.771   0.407   0.982  0.00  0.00    -0.263 N 
ATOM      4  H   UNL d   1       9.317   1.304   0.823  0.00  0.00     0.190 HD
ENDROOT
BRANCH   3   5
ATOM      5  N   UNL d   1      11.200   0.455   0.954  0.00  0.00    -0.265 N 
ATOM      6  C   UNL d   1      11.813   1.696   0.785  0.00  0.00     0.260 C 
ATOM      7  O   UNL d   1      11.133   2.717   0.641  0.00  0.00    -0.269 OA
ATOM      8  H   UNL d   1      11.686  -0.432   1.068  0.00  0.00     0.190 HD
BRANCH   6   9
ATOM      9  C   UNL d   1      13.366   1.702   0.784  0.00  0.00     0.280 C 
BRANCH   9  10
ATOM     10  O   UNL d   1      13.870   3.043   0.719  0.00  0.00    -0.342 OA
BRANCH  10  11
ATOM     11  C   UNL d   1      15.220   3.229   0.571  0.00  0.00     0.069 A 
ATOM     12  C   UNL d   1      15.752   4.376   1.175  0.00  0.00     0.037 A 
ATOM     13  C   UNL d   1      17.091   4.737   0.981  0.00  0.00     0.003 A 
ATOM     14  C   UNL d   1      17.926   3.922   0.222  0.00  0.00     0.000 A 
ATOM     15  C   UNL d   1      17.406   2.778  -0.381  0.00  0.00     0.003 A 
ATOM     16  C   UNL d   1      16.054   2.439  -0.218  0.00  0.00     0.037 A 
ENDBRANCH  10  11
ENDBRANCH   9  10
ENDBRANCH   6   9
ENDBRANCH   3   5
BRANCH   1  17
ATOM     17  C   UNL d   1       7.582  -0.795   1.141  0.00  0.00     0.033 A 
ATOM     18  C   UNL d   1       6.863  -2.003   1.270  0.00  0.00     0.019 A 
ATOM     19  C   UNL d   1       5.451  -2.045   1.141  0.00  0.00     0.030 A 
ATOM     20  C   UNL d   1       4.731  -0.871   0.907  0.00  0.00     0.034 A 
ATOM     21  C   UNL d   1       5.441   0.329   0.823  0.00  0.00     0.030 A 
ATOM     22  C   UNL d   1       6.840   0.373   0.948  0.00  0.00     0.019 A 
BRANCH  20  23
ATOM     23  N   UNL d   1       3.315  -0.876   0.808  0.00  0.00    -0.328 N 
ATOM     24  C   UNL d   1       2.623  -0.048  -0.068  0.00  0.00     0.218 C 
ATOM     25  C   UNL d   1       1.118  -0.125   0.013  0.00  0.00     0.117 C 
ATOM     26  O   UNL d   1       3.152   0.692  -0.897  0.00  0.00    -0.274 OA
ATOM     27  H   UNL d   1       2.806  -1.599   1.303  0.00  0.00     0.169 HD
ENDBRANCH  20  23
ENDBRANCH   1  17
TORSDOF 6
