REMARK  9 active torsions:
REMARK  status: ('A' for Active; 'I' for Inactive)
REMARK    1  A    between atoms: O_2  and  C_3 
REMARK    2  A    between atoms: C_9  and  C_10 
REMARK       I    between atoms: C_10  and  N_12 
REMARK    3  A    between atoms: N_12  and  C_13 
REMARK    4  A    between atoms: C_13  and  N_15 
REMARK    5  A    between atoms: N_15  and  C_16 
REMARK    6  A    between atoms: C_19  and  O_20 
REMARK    7  A    between atoms: C_22  and  C_23 
REMARK    8  A    between atoms: C_26  and  C_27 
REMARK    9  A    between atoms: C_27  and  O_28 
ROOT
ATOM      1  N   UNL d   1       3.642  -0.898  -4.092  0.00  0.00    -0.333 N 
ATOM      2  H   UNL d   1       2.788  -1.266  -3.690  0.00  0.00     0.168 HD
ENDROOT
BRANCH   1   3
ATOM      3  C   UNL d   1       4.312   0.185  -3.461  0.00  0.00     0.179 C 
ATOM      4  S   UNL d   1       5.350   1.237  -4.295  0.00  0.00    -0.040 SA
BRANCH   3   5
ATOM      5  N   UNL d   1       4.013   0.356  -2.091  0.00  0.00    -0.299 N 
ATOM      6  C   UNL d   1       4.578   1.340  -1.251  0.00  0.00     0.260 C 
ATOM      7  O   UNL d   1       5.492   2.102  -1.590  0.00  0.00    -0.267 OA
ATOM      8  H   UNL d   1       3.322  -0.247  -1.658  0.00  0.00     0.171 HD
BRANCH   6   9
ATOM      9  C   UNL d   1       4.135   1.539   0.157  0.00  0.00     0.067 A 
ATOM     10  C   UNL d   1       4.794   2.558   0.895  0.00  0.00     0.043 A 
ATOM     11  C   UNL d   1       4.462   2.819   2.219  0.00  0.00     0.035 A 
ATOM     12  C   UNL d   1       3.485   2.058   2.845  0.00  0.00     0.026 A 
ATOM     13 CL   UNL d   1       5.258   4.077   3.084  0.00  0.00    -0.084 Cl
ATOM     14  C   UNL d   1       2.820   1.054   2.128  0.00  0.00     0.039 A 
ATOM     15  C   UNL d   1       3.120   0.812   0.777  0.00  0.00     0.084 A 
BRANCH  15  16
ATOM     16  O   UNL d   1       2.498  -0.184   0.071  0.00  0.00    -0.355 OA
ATOM     17  C   UNL d   1       1.077  -0.055   0.061  0.00  0.00     0.210 C 
ENDBRANCH  15  16
ENDBRANCH   6   9
ENDBRANCH   3   5
ENDBRANCH   1   3
BRANCH   1  18
ATOM     18  C   UNL d   1       3.913  -1.285  -5.455  0.00  0.00     0.035 A 
ATOM     19  C   UNL d   1       2.920  -1.539  -6.397  0.00  0.00     0.032 A 
ATOM     20  C   UNL d   1       3.287  -1.859  -7.728  0.00  0.00     0.040 A 
ATOM     21  C   UNL d   1       4.635  -1.881  -8.159  0.00  0.00     0.081 A 
ATOM     22  C   UNL d   1       5.636  -1.651  -7.206  0.00  0.00     0.033 A 
ATOM     23  C   UNL d   1       5.242  -1.415  -5.874  0.00  0.00     0.046 A 
BRANCH  21  24
ATOM     24  O   UNL d   1       4.772  -2.200  -9.491  0.00  0.00    -0.355 OA
ATOM     25  C   UNL d   1       6.072  -2.118 -10.064  0.00  0.00     0.210 C 
ENDBRANCH  21  24
BRANCH  22  26
ATOM     26  C   UNL d   1       7.070  -1.841  -7.383  0.00  0.00     0.088 C 
ATOM     27  C   UNL d   1       7.907  -2.795  -6.850  0.00  0.00     0.041 C 
ATOM     28  C   UNL d   1       9.156  -2.623  -7.469  0.00  0.00     0.038 C 
ATOM     29  C   UNL d   1       9.037  -1.548  -8.325  0.00  0.00     0.077 C 
ATOM     30  O   UNL d   1       7.782  -1.005  -8.205  0.00  0.00    -0.312 OA
BRANCH  29  31
ATOM     31  C   UNL d   1       9.974  -0.953  -9.314  0.00  0.00     0.229 C 
BRANCH  31  32
ATOM     32  O   UNL d   1      11.239  -1.597  -9.154  0.00  0.00    -0.394 OA
ATOM     33  H   UNL d   1      11.487  -1.480  -8.221  0.00  0.00     0.209 HD
ENDBRANCH  31  32
ENDBRANCH  29  31
ENDBRANCH  22  26
ENDBRANCH   1  18
TORSDOF 9
