REMARK  12 active torsions:
REMARK  status: ('A' for Active; 'I' for Inactive)
REMARK    1  A    between atoms: C_2  and  C_4 
REMARK    2  A    between atoms: C_4  and  C_5 
REMARK    3  A    between atoms: C_5  and  N_6 
REMARK       I    between atoms: N_6  and  C_7 
REMARK    4  A    between atoms: N_6  and  C_20 
REMARK    5  A    between atoms: C_7  and  C_9 
REMARK    6  A    between atoms: C_9  and  C_10 
REMARK    7  A    between atoms: C_10  and  C_11 
REMARK    8  A    between atoms: C_11  and  N_12 
REMARK       I    between atoms: N_12  and  C_13 
REMARK    9  A    between atoms: C_13  and  C_15 
REMARK   10  A    between atoms: C_21  and  N_22 
REMARK   11  A    between atoms: N_23  and  C_24 
REMARK   12  A    between atoms: C_24  and  C_25 
ROOT
ATOM      1  N   UNL d   1       4.851  -1.084  -2.737  0.00  0.00    -0.310 N 
ATOM      2  C   UNL d   1       4.003  -1.600  -3.741  0.00  0.00     0.224 C 
ATOM      3  O   UNL d   1       4.448  -2.099  -4.782  0.00  0.00    -0.273 OA
ENDROOT
BRANCH   1   4
ATOM      4  C   UNL d   1       4.454  -0.541  -1.397  0.00  0.00     0.133 C 
BRANCH   4   5
ATOM      5  C   UNL d   1       2.973  -0.405  -1.155  0.00  0.00     0.024 C 
BRANCH   5   6
ATOM      6  C   UNL d   1       2.443   0.096   0.164  0.00  0.00    -0.021 C 
ATOM      7  C   UNL d   1       0.908   0.066   0.053  0.00  0.00     0.009 C 
ATOM      8  C   UNL d   1       2.920  -0.818   1.279  0.00  0.00     0.009 C 
ENDBRANCH   5   6
ENDBRANCH   4   5
ENDBRANCH   1   4
BRANCH   1   9
ATOM      9  C   UNL d   1       6.258  -1.139  -2.959  0.00  0.00     0.144 C 
ATOM     10  C   UNL d   1       6.861  -0.678  -4.095  0.00  0.00     0.117 C 
ATOM     11  N   UNL d   1       8.246  -0.828  -4.274  0.00  0.00    -0.284 N 
ATOM     12  C   UNL d   1       9.068  -1.270  -3.246  0.00  0.00     0.331 C 
ATOM     13  O   UNL d   1      10.297  -1.261  -3.185  0.00  0.00    -0.246 OA
ATOM     14  N   UNL d   1       8.463  -1.766  -2.151  0.00  0.00    -0.273 N 
ATOM     15  C   UNL d   1       7.143  -1.709  -1.881  0.00  0.00     0.279 C 
ATOM     16  H   UNL d   1       9.087  -2.095  -1.431  0.00  0.00     0.173 HD
ATOM     17  O   UNL d   1       6.751  -2.121  -0.794  0.00  0.00    -0.265 OA
BRANCH  10  18
ATOM     18  N   UNL d   1       6.122   0.035  -5.051  0.00  0.00    -0.286 NA
ATOM     19  H   UNL d   1       5.141  -0.231  -5.037  0.00  0.00     0.125 HD
ATOM     20  H   UNL d   1       6.452  -0.075  -6.001  0.00  0.00     0.125 HD
ENDBRANCH  10  18
BRANCH  11  21
ATOM     21  C   UNL d   1       8.807  -0.441  -5.588  0.00  0.00     0.173 C 
BRANCH  21  22
ATOM     22  C   UNL d   1      10.283  -0.631  -5.800  0.00  0.00    -0.040 A 
ATOM     23  C   UNL d   1      11.111   0.490  -5.931  0.00  0.00     0.009 A 
ATOM     24  C   UNL d   1      12.493   0.336  -5.924  0.00  0.00     0.001 A 
ATOM     25  C   UNL d   1      13.053  -0.931  -5.760  0.00  0.00     0.000 A 
ATOM     26  C   UNL d   1      12.236  -2.054  -5.649  0.00  0.00     0.001 A 
ATOM     27  C   UNL d   1      10.854  -1.913  -5.721  0.00  0.00     0.009 A 
ENDBRANCH  21  22
ENDBRANCH  11  21
ENDBRANCH   1   9
BRANCH   2  28
ATOM     28  C   UNL d   1       2.495  -1.503  -3.613  0.00  0.00     0.105 C 
BRANCH  28  29
ATOM     29  C   UNL d   1       1.690  -1.985  -4.797  0.00  0.00     0.029 C 
BRANCH  29  30
ATOM     30  C   UNL d   1       0.205  -1.849  -4.473  0.00  0.00     0.123 C 
BRANCH  30  31
ATOM     31  N   UNL d   1      -0.605  -2.345  -5.558  0.00  0.00    -0.357 N 
ATOM     32  C   UNL d   1      -1.976  -2.262  -5.506  0.00  0.00     0.252 C 
ATOM     33  O   UNL d   1      -2.579  -1.768  -4.555  0.00  0.00    -0.268 OA
ATOM     34  H   UNL d   1      -0.154  -2.647  -6.411  0.00  0.00     0.162 HD
BRANCH  32  35
ATOM     35  C   UNL d   1      -2.671  -2.781  -6.680  0.00  0.00     0.038 A 
ATOM     36  C   UNL d   1      -2.352  -3.957  -7.443  0.00  0.00     0.024 A 
ATOM     37  C   UNL d   1      -3.274  -4.211  -8.437  0.00  0.00     0.050 A 
ATOM     38  S   UNL d   1      -4.492  -3.015  -8.503  0.00  0.00    -0.113 SA
ATOM     39  C   UNL d   1      -3.817  -2.181  -7.173  0.00  0.00     0.066 A 
ENDBRANCH  32  35
ENDBRANCH  30  31
ENDBRANCH  29  30
ENDBRANCH  28  29
ENDBRANCH   2  28
TORSDOF 12
