REMARK  9 active torsions:
REMARK  status: ('A' for Active; 'I' for Inactive)
REMARK    1  A    between atoms: C_2  and  N_3 
REMARK    2  A    between atoms: C_4  and  C_5 
REMARK    3  A    between atoms: C_9  and  N_10 
REMARK    4  A    between atoms: C_13  and  C_14 
REMARK    5  A    between atoms: C_14  and  C_15 
REMARK    6  A    between atoms: C_15  and  C_16 
REMARK    7  A    between atoms: C_16  and  O_19 
REMARK    8  A    between atoms: C_21  and  C_22 
REMARK    9  A    between atoms: C_22  and  N_23 
ROOT
ATOM      1  N   UNL d   1       2.910   1.100   0.752  0.00  0.00    -0.328 N 
ATOM      2  C   UNL d   1       2.564   2.406   0.450  0.00  0.00     0.166 A 
ATOM      3  N   UNL d   1       3.053   3.240   1.355  0.00  0.00    -0.223 NA
ATOM      4  C   UNL d   1       3.710   2.481   2.288  0.00  0.00     0.123 A 
ATOM      5  C   UNL d   1       4.397   2.808   3.472  0.00  0.00     0.141 C 
ATOM      6  N   UNL d   1       5.039   1.771   4.085  0.00  0.00    -0.240 NA
ATOM      7  C   UNL d   1       4.899   0.462   3.771  0.00  0.00     0.064 C 
ATOM      8  C   UNL d   1       4.212   0.069   2.654  0.00  0.00     0.061 C 
ATOM      9  C   UNL d   1       3.645   1.121   1.920  0.00  0.00     0.070 A 
ENDROOT
BRANCH   2  10
ATOM     10  C   UNL d   1       1.747   2.881  -0.710  0.00  0.00     0.179 C 
ATOM     11  N   UNL d   1       2.255   3.677  -1.657  0.00  0.00    -0.097 NA
ATOM     12  O   UNL d   1       1.239   3.794  -2.603  0.00  0.00    -0.104 OA
ATOM     13  N   UNL d   1       0.111   3.069  -2.222  0.00  0.00    -0.085 NA
ATOM     14  C   UNL d   1       0.389   2.612  -1.016  0.00  0.00     0.186 C 
BRANCH  14  15
ATOM     15  N   UNL d   1      -0.505   1.951  -0.228  0.00  0.00    -0.380 N 
ATOM     16  H   UNL d   1      -1.179   1.367  -0.718  0.00  0.00     0.158 HD
ATOM     17  H   UNL d   1      -0.226   1.571   0.663  0.00  0.00     0.158 HD
ENDBRANCH  14  15
ENDBRANCH   2  10
BRANCH   1  18
ATOM     18  C   UNL d   1       2.651  -0.127   0.004  0.00  0.00     0.126 C 
ATOM     19  C   UNL d   1       1.186  -0.465  -0.035  0.00  0.00     0.027 C 
ENDBRANCH   1  18
BRANCH   5  20
ATOM     20  C   UNL d   1       4.467   4.116   4.180  0.00  0.00    -0.041 C 
BRANCH  20  21
ATOM     21  C   UNL d   1       4.533   5.340   4.622  0.00  0.00    -0.062 C 
BRANCH  21  22
ATOM     22  C   UNL d   1       4.610   6.768   5.137  0.00  0.00     0.114 C 
ATOM     23  C   UNL d   1       4.189   7.736   4.033  0.00  0.00     0.060 C 
ATOM     24  C   UNL d   1       3.698   6.920   6.352  0.00  0.00     0.060 C 
BRANCH  22  25
ATOM     25  O   UNL d   1       5.949   7.030   5.537  0.00  0.00    -0.378 OA
ATOM     26  H   UNL d   1       6.499   6.981   4.736  0.00  0.00     0.211 HD
ENDBRANCH  22  25
ENDBRANCH  21  22
ENDBRANCH  20  21
ENDBRANCH   5  20
BRANCH   7  27
ATOM     27  C   UNL d   1       5.510  -0.547   4.736  0.00  0.00     0.293 C 
BRANCH  27  28
ATOM     28  N   UNL d   1       6.105   0.032   6.030  0.00  0.00    -0.066 N 
ATOM     29  C   UNL d   1       5.092   0.595   7.011  0.00  0.00     0.235 C 
ATOM     30  C   UNL d   1       4.979   2.062   6.683  0.00  0.00     0.029 C 
ATOM     31  C   UNL d   1       6.386   2.440   6.196  0.00  0.00     0.029 C 
ATOM     32  C   UNL d   1       7.087   1.155   5.756  0.00  0.00     0.235 C 
ATOM     33  H   UNL d   1       6.606  -0.734   6.494  0.00  0.00     0.280 HD
ENDBRANCH  27  28
ENDBRANCH   7  27
TORSDOF 9
