REMARK  7 active torsions:
REMARK  status: ('A' for Active; 'I' for Inactive)
REMARK    1  A    between atoms: O_2  and  C_3 
REMARK    2  A    between atoms: C_7  and  N_8 
REMARK    3  A    between atoms: N_8  and  N_9 
REMARK       I    between atoms: N_9  and  C_10 
REMARK       I    between atoms: C_10  and  N_12 
REMARK    4  A    between atoms: N_12  and  C_13 
REMARK    5  A    between atoms: C_13  and  C_14 
REMARK    6  A    between atoms: C_18  and  N_19 
REMARK       I    between atoms: N_19  and  C_20 
REMARK    7  A    between atoms: C_20  and  C_22 
ROOT
ATOM      1  C   UNL d   1       9.201   3.168  -6.291  0.00  0.00     0.163 C 
ENDROOT
BRANCH   1   2
ATOM      2  N   UNL d   1       8.079   3.284  -5.316  0.00  0.00    -0.338 N 
ATOM      3  C   UNL d   1       7.525   2.227  -4.641  0.00  0.00     0.335 C 
ATOM      4  N   UNL d   1       6.489   2.580  -3.777  0.00  0.00    -0.237 N 
ATOM      5  O   UNL d   1       7.913   1.066  -4.795  0.00  0.00    -0.246 OA
ATOM      6  H   UNL d   1       6.123   3.521  -3.651  0.00  0.00     0.192 HD
ATOM      7  H   UNL d   1       7.761   4.187  -4.997  0.00  0.00     0.164 HD
BRANCH   4   8
ATOM      8  N   UNL d   1       5.838   1.557  -3.053  0.00  0.00    -0.124 N 
ATOM      9  H   UNL d   1       6.153   0.601  -3.164  0.00  0.00     0.206 HD
BRANCH   8  10
ATOM     10  C   UNL d   1       4.773   1.824  -2.185  0.00  0.00     0.743 A 
ATOM     11  N   UNL d   1       4.357   3.097  -2.037  0.00  0.00    -0.074 NA
ATOM     12  C   UNL d   1       3.346   3.318  -1.173  0.00  0.00     0.141 A 
ATOM     13  C   UNL d   1       2.721   2.337  -0.450  0.00  0.00     0.078 A 
ATOM     14  C   UNL d   1       3.161   1.062  -0.696  0.00  0.00     0.184 A 
ATOM     15  N   UNL d   1       4.195   0.789  -1.530  0.00  0.00    -0.037 NA
BRANCH  14  16
ATOM     16  O   UNL d   1       2.603  -0.020  -0.045  0.00  0.00    -0.339 OA
ATOM     17  C   UNL d   1       1.171  -0.001   0.013  0.00  0.00     0.211 C 
ENDBRANCH  14  16
ENDBRANCH   8  10
ENDBRANCH   4   8
ENDBRANCH   1   2
BRANCH   1  18
ATOM     18  C   UNL d   1       9.664   4.476  -6.929  0.00  0.00    -0.038 A 
ATOM     19  C   UNL d   1      10.777   4.647  -7.756  0.00  0.00     0.009 A 
ATOM     20  C   UNL d   1      11.143   5.942  -8.195  0.00  0.00     0.003 A 
ATOM     21  C   UNL d   1      10.376   7.075  -7.855  0.00  0.00     0.029 A 
ATOM     22  C   UNL d   1       9.250   6.908  -7.059  0.00  0.00     0.035 A 
ATOM     23  C   UNL d   1       8.924   5.618  -6.680  0.00  0.00     0.038 A 
BRANCH  22  24
ATOM     24  N   UNL d   1       8.441   7.982  -6.607  0.00  0.00    -0.327 N 
ATOM     25  C   UNL d   1       7.385   7.848  -5.697  0.00  0.00     0.226 C 
ATOM     26  O   UNL d   1       6.968   6.793  -5.208  0.00  0.00    -0.273 OA
ATOM     27  H   UNL d   1       8.731   8.901  -6.908  0.00  0.00     0.169 HD
BRANCH  25  28
ATOM     28  C   UNL d   1       6.638   9.096  -5.277  0.00  0.00     0.078 C 
ATOM     29  C   UNL d   1       6.439   9.023  -3.745  0.00  0.00     0.014 C 
ATOM     30  C   UNL d   1       5.692  10.232  -3.206  0.00  0.00     0.001 C 
ATOM     31  C   UNL d   1       6.366  11.527  -3.636  0.00  0.00     0.000 C 
ATOM     32  C   UNL d   1       6.508  11.595  -5.152  0.00  0.00     0.001 C 
ATOM     33  C   UNL d   1       7.287  10.406  -5.689  0.00  0.00     0.014 C 
ENDBRANCH  25  28
ENDBRANCH  22  24
ENDBRANCH   1  18
TORSDOF 7
