@<TRIPOS>MOLECULE
*****
 55 56 0 0 0
SMALL
GASTEIGER

@<TRIPOS>ATOM
      1 O           1.2162   -0.4394   -0.2233 O.2     1  UNL1       -0.2758
      2 C           2.4098   -0.2074   -0.0268 C.2     1  UNL1        0.2137
      3 C           3.0473    1.1868   -0.0967 C.3     1  UNL1        0.0268
      4 C           2.0315    2.3548   -0.2011 C.3     1  UNL1       -0.0328
      5 C           0.8866    2.1862    0.8120 C.3     1  UNL1       -0.0498
      6 C          -0.1273    3.3099    0.7641 C.3     1  UNL1       -0.0528
      7 C           0.5397    4.6462    1.0075 C.3     1  UNL1       -0.0530
      8 C           1.6604    4.8745   -0.0029 C.3     1  UNL1       -0.0528
      9 C           2.6948    3.7378    0.0185 C.3     1  UNL1       -0.0498
     10 N           3.1904   -1.2790    0.2605 N.am    1  UNL1       -0.3067
     11 C           4.6364   -1.3682    0.2568 C.3     1  UNL1        0.0895
     12 C           5.0817   -2.8318    0.4404 C.2     1  UNL1        0.2462
     13 O           4.2838   -3.7640    0.5567 O.2     1  UNL1       -0.2726
     14 N           6.4506   -3.0240    0.4594 N.am    1  UNL1       -0.2331
     15 N           6.9718   -4.3300    0.6261 N.am    1  UNL1       -0.2344
     16 C           8.3474   -4.4857    0.6435 C.2     1  UNL1        0.2293
     17 O           9.0965   -3.5178    0.5110 O.2     1  UNL1       -0.2743
     18 C           8.8447   -5.9205    0.8478 C.3     1  UNL1        0.0282
     19 C          10.3921   -6.0160    0.8446 C.3     1  UNL1       -0.0327
     20 C          10.9052   -7.1985    1.6884 C.3     1  UNL1       -0.0498
     21 C          12.4318   -7.3186    1.6337 C.3     1  UNL1       -0.0528
     22 C          12.9354   -7.4235    0.1983 C.3     1  UNL1       -0.0530
     23 C          12.4479   -6.2439   -0.6351 C.3     1  UNL1       -0.0528
     24 C          10.9256   -6.1242   -0.5956 C.3     1  UNL1       -0.0498
     25 H           3.7068    1.2057   -0.9735 H       1  UNL1        0.0361
     26 H           3.6737    1.3295    0.7918 H       1  UNL1        0.0361
     27 H           1.6141    2.3468   -1.2179 H       1  UNL1        0.0305
     28 H           1.3076    2.0888    1.8198 H       1  UNL1        0.0268
     29 H           0.3035    1.2895    0.6183 H       1  UNL1        0.0268
     30 H          -0.8987    3.1203    1.5179 H       1  UNL1        0.0265
     31 H          -0.6243    3.3066   -0.2143 H       1  UNL1        0.0265
     32 H           0.9452    4.6703    2.0263 H       1  UNL1        0.0265
     33 H          -0.2100    5.4409    0.9357 H       1  UNL1        0.0265
     34 H           2.1456    5.8336    0.2090 H       1  UNL1        0.0265
     35 H           1.2278    4.9487   -1.0085 H       1  UNL1        0.0265
     36 H           3.2141    3.7549    0.9859 H       1  UNL1        0.0268
     37 H           3.4540    3.9313   -0.7493 H       1  UNL1        0.0268
     38 H           2.6684   -2.1529    0.3046 H       1  UNL1        0.1492
     39 H           5.0108   -0.7483    1.0747 H       1  UNL1        0.0558
     40 H           4.9948   -0.9821   -0.7016 H       1  UNL1        0.0558
     41 H           7.1382   -2.2774    0.3624 H       1  UNL1        0.1728
     42 H           6.2991   -5.0886    0.7286 H       1  UNL1        0.1728
     43 H           8.4244   -6.5592    0.0609 H       1  UNL1        0.0361
     44 H           8.4506   -6.2772    1.8070 H       1  UNL1        0.0361
     45 H          10.8090   -5.1053    1.2951 H       1  UNL1        0.0305
     46 H          10.4575   -8.1353    1.3352 H       1  UNL1        0.0268
     47 H          10.6006   -7.0691    2.7337 H       1  UNL1        0.0268
     48 H          12.7578   -8.1960    2.2039 H       1  UNL1        0.0265
     49 H          12.8868   -6.4420    2.1124 H       1  UNL1        0.0265
     50 H          12.5829   -8.3621   -0.2472 H       1  UNL1        0.0265
     51 H          14.0309   -7.4570    0.1883 H       1  UNL1        0.0265
     52 H          12.7829   -6.3606   -1.6718 H       1  UNL1        0.0265
     53 H          12.8968   -5.3182   -0.2547 H       1  UNL1        0.0265
     54 H          10.4890   -7.0037   -1.0865 H       1  UNL1        0.0268
     55 H          10.6191   -5.2485   -1.1780 H       1  UNL1        0.0268
@<TRIPOS>BOND
     1     1     2    2
     2     2     3    1
     3     3     4    1
     4     4     5    1
     5     5     6    1
     6     6     7    1
     7     7     8    1
     8     8     9    1
     9     4     9    1
    10     2    10   am
    11    10    11    1
    12    11    12    1
    13    12    13    2
    14    12    14   am
    15    14    15    1
    16    15    16   am
    17    16    17    2
    18    16    18    1
    19    18    19    1
    20    19    20    1
    21    20    21    1
    22    21    22    1
    23    22    23    1
    24    23    24    1
    25    19    24    1
    26     3    25    1
    27     3    26    1
    28     4    27    1
    29     5    28    1
    30     5    29    1
    31     6    30    1
    32     6    31    1
    33     7    32    1
    34     7    33    1
    35     8    34    1
    36     8    35    1
    37     9    36    1
    38     9    37    1
    39    10    38    1
    40    11    39    1
    41    11    40    1
    42    14    41    1
    43    15    42    1
    44    18    43    1
    45    18    44    1
    46    19    45    1
    47    20    46    1
    48    20    47    1
    49    21    48    1
    50    21    49    1
    51    22    50    1
    52    22    51    1
    53    23    52    1
    54    23    53    1
    55    24    54    1
    56    24    55    1
