@<TRIPOS>MOLECULE
*****
 27 28 0 0 0
SMALL
GASTEIGER

@<TRIPOS>ATOM
      1 O           1.0132   -0.0086    0.1110 O.2     1  UNL1       -0.2698
      2 C           2.2408    0.1022    0.0848 C.2     1  UNL1        0.2512
      3 N           2.9633    0.8362   -0.8535 N.am    1  UNL1       -0.2785
      4 C           2.2852    1.5402   -1.8879 C.ar    1  UNL1        0.0756
      5 C           2.6829    1.3706   -3.2196 C.ar    1  UNL1       -0.0369
      6 C           1.9568    1.9790   -4.2546 C.ar    1  UNL1       -0.0598
      7 C           0.8583    2.7900   -3.9639 C.ar    1  UNL1       -0.0582
      8 C           0.4870    3.0076   -2.6376 C.ar    1  UNL1       -0.0183
      9 C           1.2068    2.3950   -1.6099 C.ar    1  UNL1        0.1380
     10 O           0.9287    2.7172   -0.3071 O.3     1  UNL1       -0.5049
     11 C           2.9997   -0.6920    1.0780 C.ar    1  UNL1        0.0735
     12 C           4.0419   -0.1521    1.8416 C.ar    1  UNL1       -0.0285
     13 C           4.6144   -0.9284    2.8598 C.ar    1  UNL1        0.0419
     14 CL          5.8855   -0.2816    3.8249 Cl      1  UNL1       -0.0835
     15 C           4.1605   -2.2238    3.1250 C.ar    1  UNL1       -0.0406
     16 C           3.1268   -2.7579    2.3616 C.ar    1  UNL1       -0.0243
     17 C           2.5568   -1.9942    1.3463 C.ar    1  UNL1        0.1356
     18 F           1.5782   -2.5551    0.6217 F       1  UNL1       -0.2047
     19 H           3.9331    0.5986   -1.0107 H       1  UNL1        0.1552
     20 H           3.5112    0.7182   -3.4795 H       1  UNL1        0.0637
     21 H           2.2349    1.8081   -5.2929 H       1  UNL1        0.0618
     22 H           0.3005    3.2628   -4.7695 H       1  UNL1        0.0619
     23 H          -0.3458    3.6688   -2.4196 H       1  UNL1        0.0655
     24 H           0.0249    3.0623   -0.2556 H       1  UNL1        0.2922
     25 H           4.3725    0.8716    1.6898 H       1  UNL1        0.0640
     26 H           4.5983   -2.8172    3.9251 H       1  UNL1        0.0633
     27 H           2.7485   -3.7581    2.5528 H       1  UNL1        0.0647
@<TRIPOS>BOND
     1     1     2    2
     2     2     3   am
     3     3     4    1
     4     4     5   ar
     5     5     6   ar
     6     6     7   ar
     7     7     8   ar
     8     8     9   ar
     9     4     9   ar
    10     9    10    1
    11     2    11    1
    12    11    12   ar
    13    12    13   ar
    14    13    14    1
    15    13    15   ar
    16    15    16   ar
    17    16    17   ar
    18    11    17   ar
    19    17    18    1
    20     3    19    1
    21     5    20    1
    22     6    21    1
    23     7    22    1
    24     8    23    1
    25    10    24    1
    26    12    25    1
    27    15    26    1
    28    16    27    1
