@<TRIPOS>MOLECULE
*****
 72 73 0 0 0
SMALL
GASTEIGER

@<TRIPOS>ATOM
      1 C           0.9729    0.0871    0.0725 C.3     1  UNL1       -0.0648
      2 C           2.4895    0.1184    0.0981 C.3     1  UNL1       -0.0476
      3 C           3.0099    1.1445   -0.9031 C.3     1  UNL1        0.0239
      4 C           4.5307    1.1949   -0.9223 C.2     1  UNL1        0.2168
      5 O           5.1584    0.6199   -0.0293 O.2     1  UNL1       -0.2756
      6 N           5.1708    1.8632   -1.9706 N.am    1  UNL1       -0.2783
      7 C           4.4189    2.7527   -2.8732 C.3     1  UNL1        0.0737
      8 C           3.6320    1.9891   -3.8685 C.ar    1  UNL1        0.1225
      9 C           3.4037    0.6432   -4.0622 C.ar    1  UNL1       -0.0189
     10 C           2.4468    0.5448   -5.0810 C.ar    1  UNL1       -0.0207
     11 C           2.2442    1.8213   -5.5478 C.ar    1  UNL1        0.1023
     12 C           1.4190    2.3243   -6.6586 C.3     1  UNL1       -0.0064
     13 O           2.9510    2.7185   -4.8049 O.2     1  UNL1       -0.4633
     14 C           6.6708    1.9557   -1.9494 C.3     1  UNL1        0.1346
     15 C           7.3106    0.5705   -2.0862 C.2     1  UNL1        0.2387
     16 O           8.2725    0.4424   -2.8664 O.2     1  UNL1       -0.2734
     17 N           6.9337   -0.5268   -1.3608 N.am    1  UNL1       -0.3085
     18 C           7.4406   -1.8528   -1.7437 C.3     1  UNL1        0.0295
     19 C           6.8851   -2.1266   -3.1604 C.3     1  UNL1       -0.0440
     20 C           8.9845   -1.7909   -1.7296 C.3     1  UNL1       -0.0440
     21 C           6.9438   -2.9459   -0.7315 C.3     1  UNL1       -0.0272
     22 C           7.3992   -4.4355   -0.9585 C.3     1  UNL1       -0.0358
     23 C           6.8762   -5.0248   -2.2767 C.3     1  UNL1       -0.0600
     24 C           8.9224   -4.6248   -0.8828 C.3     1  UNL1       -0.0600
     25 C           6.8246   -5.3247    0.1558 C.3     1  UNL1       -0.0600
     26 C           7.2594    2.9474   -3.0163 C.ar    1  UNL1        0.0648
     27 C           7.7065    2.6235   -4.3318 C.ar    1  UNL1        0.1292
     28 O           7.8182    1.3866   -4.9138 O.3     1  UNL1       -0.5062
     29 C           8.0047    3.5959   -5.2823 C.ar    1  UNL1        0.0219
     30 C           7.7726    4.9209   -4.9946 C.ar    1  UNL1        0.1238
     31 O           7.9236    5.8704   -5.9587 O.3     1  UNL1       -0.5065
     32 C           7.3393    5.2994   -3.7338 C.ar    1  UNL1        0.0219
     33 C           7.1358    4.3280   -2.7445 C.ar    1  UNL1        0.1292
     34 O           6.6388    4.7198   -1.5280 O.3     1  UNL1       -0.5062
     35 H           0.5958   -0.6236    0.8118 H       1  UNL1        0.0230
     36 H           0.6039   -0.2153   -0.9139 H       1  UNL1        0.0230
     37 H           0.5676    1.0777    0.2996 H       1  UNL1        0.0230
     38 H           2.8750   -0.8799   -0.1514 H       1  UNL1        0.0267
     39 H           2.8447    0.3601    1.1043 H       1  UNL1        0.0267
     40 H           2.6340    2.1447   -0.6774 H       1  UNL1        0.0358
     41 H           2.6015    0.8361   -1.8583 H       1  UNL1        0.0358
     42 H           5.0533    3.4004   -3.4676 H       1  UNL1        0.0545
     43 H           3.8009    3.4190   -2.2623 H       1  UNL1        0.0545
     44 H           3.8060   -0.1586   -3.4597 H       1  UNL1        0.0652
     45 H           1.9680   -0.3475   -5.4503 H       1  UNL1        0.0652
     46 H           0.8908    1.4803   -7.1158 H       1  UNL1        0.0308
     47 H           2.0400    2.7857   -7.4312 H       1  UNL1        0.0308
     48 H           0.6713    3.0418   -6.3128 H       1  UNL1        0.0308
     49 H           6.9835    2.2873   -0.9464 H       1  UNL1        0.0650
     50 H           6.2822   -0.4110   -0.5782 H       1  UNL1        0.1493
     51 H           7.0335   -1.3032   -3.8602 H       1  UNL1        0.0250
     52 H           5.8043   -2.3191   -3.1326 H       1  UNL1        0.0250
     53 H           7.3969   -2.9386   -3.6587 H       1  UNL1        0.0250
     54 H           9.4583   -0.9992   -2.2987 H       1  UNL1        0.0250
     55 H           9.4292   -2.6231   -2.2461 H       1  UNL1        0.0250
     56 H           9.3594   -1.6731   -0.7077 H       1  UNL1        0.0250
     57 H           5.8418   -2.9166   -0.6897 H       1  UNL1        0.0291
     58 H           7.2506   -2.6384    0.2822 H       1  UNL1        0.0291
     59 H           7.4027   -4.6454   -3.1459 H       1  UNL1        0.0235
     60 H           5.8014   -4.8438   -2.3930 H       1  UNL1        0.0235
     61 H           7.0584   -6.1003   -2.3364 H       1  UNL1        0.0235
     62 H           9.4369   -4.2841   -1.7735 H       1  UNL1        0.0235
     63 H           9.2010   -5.6797   -0.8576 H       1  UNL1        0.0235
     64 H           9.3400   -4.1268    0.0003 H       1  UNL1        0.0235
     65 H           5.7314   -5.3137    0.1561 H       1  UNL1        0.0235
     66 H           7.1869   -5.0160    1.1407 H       1  UNL1        0.0235
     67 H           7.1459   -6.3625   -0.0037 H       1  UNL1        0.0235
     68 H           7.9821    0.7180   -4.2213 H       1  UNL1        0.2922
     69 H           8.3516    3.2690   -6.2588 H       1  UNL1        0.0691
     70 H           8.2248    5.4226   -6.7697 H       1  UNL1        0.2921
     71 H           7.1099    6.3442   -3.5595 H       1  UNL1        0.0691
     72 H           6.5591    5.6896   -1.5243 H       1  UNL1        0.2922
@<TRIPOS>BOND
     1     1     2    1
     2     2     3    1
     3     3     4    1
     4     4     5    2
     5     4     6   am
     6     6     7    1
     7     7     8    1
     8     8     9   ar
     9     9    10   ar
    10    10    11   ar
    11    11    12    1
    12    11    13   ar
    13     8    13   ar
    14     6    14    1
    15    14    15    1
    16    15    16    2
    17    15    17   am
    18    17    18    1
    19    18    19    1
    20    18    20    1
    21    18    21    1
    22    21    22    1
    23    22    23    1
    24    22    24    1
    25    22    25    1
    26    14    26    1
    27    26    27   ar
    28    27    28    1
    29    27    29   ar
    30    29    30   ar
    31    30    31    1
    32    30    32   ar
    33    32    33   ar
    34    26    33   ar
    35    33    34    1
    36     1    35    1
    37     1    36    1
    38     1    37    1
    39     2    38    1
    40     2    39    1
    41     3    40    1
    42     3    41    1
    43     7    42    1
    44     7    43    1
    45     9    44    1
    46    10    45    1
    47    12    46    1
    48    12    47    1
    49    12    48    1
    50    14    49    1
    51    17    50    1
    52    19    51    1
    53    19    52    1
    54    19    53    1
    55    20    54    1
    56    20    55    1
    57    20    56    1
    58    21    57    1
    59    21    58    1
    60    23    59    1
    61    23    60    1
    62    23    61    1
    63    24    62    1
    64    24    63    1
    65    24    64    1
    66    25    65    1
    67    25    66    1
    68    25    67    1
    69    28    68    1
    70    29    69    1
    71    31    70    1
    72    32    71    1
    73    34    72    1
