@<TRIPOS>MOLECULE
*****
 38 40 0 0 0
SMALL
GASTEIGER

@<TRIPOS>ATOM
      1 O           1.0761    0.1186   -0.0804 O.2     1  UNL1       -0.2685
      2 C           2.3054    0.0953   -0.0598 C.2     1  UNL1        0.2637
      3 N           3.0617    0.1794   -1.2286 N.am    1  UNL1       -0.2303
      4 N           2.3929    0.2110   -2.4921 N.am    1  UNL1       -0.2339
      5 C           3.1277    0.2701   -3.6683 C.2     1  UNL1        0.2328
      6 O           4.3609    0.2527   -3.6796 O.2     1  UNL1       -0.2740
      7 C           2.3456    0.3949   -4.9628 C.3     1  UNL1        0.0444
      8 C           2.8170   -0.2565   -6.2573 C.3     1  UNL1       -0.0338
      9 C           2.9698    1.2269   -6.0855 C.3     1  UNL1       -0.0039
     10 C           2.2516    2.2727   -6.9321 C.ar    1  UNL1       -0.0408
     11 C           0.8842    2.3028   -7.2564 C.ar    1  UNL1       -0.0581
     12 C           0.3139    3.3959   -7.9449 C.ar    1  UNL1       -0.0588
     13 C           1.1006    4.4752   -8.3456 C.ar    1  UNL1       -0.0264
     14 C           2.4559    4.4428   -8.0798 C.ar    1  UNL1        0.1237
     15 F           3.2329    5.4712   -8.4473 F       1  UNL1       -0.2055
     16 C           3.0199    3.3643   -7.4025 C.ar    1  UNL1       -0.0230
     17 C           3.0622   -0.0040    1.2372 C.ar    1  UNL1        0.0795
     18 C           4.1539    0.8430    1.4895 C.ar    1  UNL1       -0.0460
     19 C           4.8492    0.7710    2.7070 C.ar    1  UNL1       -0.0608
     20 C           4.4655   -0.1460    3.6850 C.ar    1  UNL1       -0.0583
     21 C           3.3716   -0.9820    3.4580 C.ar    1  UNL1       -0.0194
     22 C           2.6697   -0.9037    2.2447 C.ar    1  UNL1        0.1290
     23 O           1.6126   -1.7457    2.0342 O.3     1  UNL1       -0.5060
     24 H           4.0765    0.1089   -1.2516 H       1  UNL1        0.1731
     25 H           1.3753    0.2165   -2.4526 H       1  UNL1        0.1728
     26 H           1.2684    0.3796   -4.8375 H       1  UNL1        0.0401
     27 H           2.0718   -0.6525   -6.9392 H       1  UNL1        0.0279
     28 H           3.7360   -0.8381   -6.2658 H       1  UNL1        0.0279
     29 H           3.9947    1.5356   -5.8695 H       1  UNL1        0.0356
     30 H           0.2314    1.4849   -6.9608 H       1  UNL1        0.0620
     31 H          -0.7543    3.4163   -8.1515 H       1  UNL1        0.0619
     32 H           0.6737    5.3352   -8.8527 H       1  UNL1        0.0646
     33 H           4.0900    3.3981   -7.2124 H       1  UNL1        0.0649
     34 H           4.4584    1.5875    0.7592 H       1  UNL1        0.0626
     35 H           5.6902    1.4359    2.8975 H       1  UNL1        0.0618
     36 H           5.0171   -0.2056    4.6227 H       1  UNL1        0.0619
     37 H           3.0890   -1.6913    4.2327 H       1  UNL1        0.0654
     38 H           1.4067   -2.2392    2.8440 H       1  UNL1        0.2922
@<TRIPOS>BOND
     1     1     2    2
     2     2     3   am
     3     3     4    1
     4     4     5   am
     5     5     6    2
     6     5     7    1
     7     7     8    1
     8     8     9    1
     9     7     9    1
    10    10    11   ar
    11    11    12   ar
    12    12    13   ar
    13    13    14   ar
    14    14    15    1
    15    14    16   ar
    16    10    16   ar
    17     2    17    1
    18    17    18   ar
    19    18    19   ar
    20    19    20   ar
    21    20    21   ar
    22    21    22   ar
    23    17    22   ar
    24    22    23    1
    25     9    10    1
    26     3    24    1
    27     4    25    1
    28     7    26    1
    29     8    27    1
    30     8    28    1
    31     9    29    1
    32    11    30    1
    33    12    31    1
    34    13    32    1
    35    16    33    1
    36    18    34    1
    37    19    35    1
    38    20    36    1
    39    21    37    1
    40    23    38    1
