@<TRIPOS>MOLECULE
*****
 74 77 0 0 0
SMALL
GASTEIGER

@<TRIPOS>ATOM
      1 C           1.3922   -0.0081    1.1534 C.3     1  UNL1       -0.0643
      2 C           2.9159    0.2276    0.6661 C.3     1  UNL1       -0.0407
      3 C           3.3719    1.3002   -0.6286 C.3     1  UNL1        0.0605
      4 C           2.6412    2.5855   -0.4558 C.2     1  UNL1        0.2242
      5 O           3.3055    3.5417    0.0423 O.2     1  UNL1       -0.2749
      6 N           1.2640    2.7066   -0.7901 N.am    1  UNL1       -0.2778
      7 C           0.2524    1.7276   -1.4977 C.3     1  UNL1        0.0737
      8 C           0.4168    0.1838   -1.8994 C.ar    1  UNL1        0.1225
      9 C           1.6398   -0.3728   -1.7484 C.ar    1  UNL1       -0.0189
     10 C           1.7659   -1.6768   -1.3425 C.ar    1  UNL1       -0.0207
     11 C           0.4579   -2.0364   -1.2689 C.ar    1  UNL1        0.1023
     12 C           0.0939   -3.4105   -0.8991 C.3     1  UNL1       -0.0064
     13 O          -0.4108   -0.9291   -1.4948 O.2     1  UNL1       -0.4633
     14 C           0.6103    3.9826   -0.2219 C.3     1  UNL1        0.1346
     15 C           1.1105    5.0899   -1.2544 C.2     1  UNL1        0.2386
     16 O           0.3230    5.6961   -1.9785 O.2     1  UNL1       -0.2734
     17 N           2.4616    5.4130   -1.2927 N.am    1  UNL1       -0.3106
     18 C           2.9953    6.4005   -2.2158 C.3     1  UNL1        0.0232
     19 C           2.4372    7.7669   -1.8172 C.3     1  UNL1       -0.0345
     20 C           2.9102    8.8689   -2.7376 C.3     1  UNL1       -0.0514
     21 C           4.4276    8.9272   -2.7753 C.3     1  UNL1       -0.0529
     22 C           5.0161    7.5782   -3.1837 C.3     1  UNL1       -0.0514
     23 C           4.5371    6.4491   -2.2595 C.3     1  UNL1       -0.0345
     24 C          -0.9798    4.0318   -0.0232 C.ar    1  UNL1        0.0648
     25 C          -1.6946    5.2566   -0.0320 C.ar    1  UNL1        0.1292
     26 O          -1.1391    6.4998    0.1450 O.3     1  UNL1       -0.5062
     27 C          -3.1020    5.3130   -0.1482 C.ar    1  UNL1        0.0219
     28 C          -3.8437    4.1492   -0.2537 C.ar    1  UNL1        0.1238
     29 O          -5.1989    4.1172   -0.3564 O.3     1  UNL1       -0.5065
     30 C          -3.2176    2.9396   -0.1338 C.ar    1  UNL1        0.0219
     31 C          -1.8493    2.9123    0.1386 C.ar    1  UNL1        0.1292
     32 O          -1.4965    1.7147    0.7192 O.3     1  UNL1       -0.5062
     33 C           4.8489    1.2884   -0.8620 C.ar    1  UNL1       -0.0355
     34 C           5.6250    1.1002    0.2624 C.ar    1  UNL1       -0.0578
     35 C           6.9788    1.2239    0.1948 C.ar    1  UNL1       -0.0615
     36 C           7.5776    1.4228   -1.0399 C.ar    1  UNL1       -0.0617
     37 C           6.8206    1.5149   -2.2130 C.ar    1  UNL1       -0.0615
     38 C           5.4384    1.4404   -2.1358 C.ar    1  UNL1       -0.0578
     39 H           1.2166   -0.8456    1.8520 H       1  UNL1        0.0230
     40 H           0.6592   -0.3173    0.4280 H       1  UNL1        0.0230
     41 H           0.9386    0.9248    1.4827 H       1  UNL1        0.0230
     42 H           3.4278   -0.7197    0.4168 H       1  UNL1        0.0273
     43 H           3.3886    0.5550    1.5885 H       1  UNL1        0.0273
     44 H           3.1454    1.0830   -1.6939 H       1  UNL1        0.0443
     45 H          -0.3829    2.2929   -2.1803 H       1  UNL1        0.0545
     46 H          -0.1895    1.5184   -0.5731 H       1  UNL1        0.0545
     47 H           1.8897    0.3160   -1.0297 H       1  UNL1        0.0652
     48 H           2.5352   -2.1466   -0.7225 H       1  UNL1        0.0652
     49 H           1.0027   -3.9407   -0.5375 H       1  UNL1        0.0308
     50 H          -0.1645   -3.9041   -1.8326 H       1  UNL1        0.0308
     51 H          -0.6471   -3.5213   -0.1160 H       1  UNL1        0.0308
     52 H           1.0568    4.2264    0.7593 H       1  UNL1        0.0650
     53 H           3.1232    4.8798   -0.7254 H       1  UNL1        0.1490
     54 H           2.6410    6.1159   -3.2154 H       1  UNL1        0.0498
     55 H           2.7258    7.9821   -0.7800 H       1  UNL1        0.0283
     56 H           1.3452    7.7665   -1.8350 H       1  UNL1        0.0283
     57 H           2.4976    9.8204   -2.3890 H       1  UNL1        0.0266
     58 H           2.5168    8.6884   -3.7454 H       1  UNL1        0.0266
     59 H           4.8074    9.2084   -1.7852 H       1  UNL1        0.0265
     60 H           4.7402    9.7059   -3.4781 H       1  UNL1        0.0265
     61 H           6.1101    7.6396   -3.1774 H       1  UNL1        0.0266
     62 H           4.7143    7.3531   -4.2147 H       1  UNL1        0.0266
     63 H           4.9461    6.6083   -1.2531 H       1  UNL1        0.0283
     64 H           4.9492    5.4949   -2.6124 H       1  UNL1        0.0283
     65 H          -0.2058    6.5214   -0.1118 H       1  UNL1        0.2922
     66 H          -3.5899    6.2825   -0.1597 H       1  UNL1        0.0691
     67 H          -5.5381    5.0223   -0.2868 H       1  UNL1        0.2921
     68 H          -3.8053    2.0256   -0.1479 H       1  UNL1        0.0691
     69 H          -1.8496    0.9983    0.1443 H       1  UNL1        0.2922
     70 H           5.1854    0.8926    1.2235 H       1  UNL1        0.0620
     71 H           7.5139    1.1944    1.1335 H       1  UNL1        0.0618
     72 H           8.6534    1.5101   -1.0707 H       1  UNL1        0.0618
     73 H           7.3066    1.6830   -3.1701 H       1  UNL1        0.0618
     74 H           4.8493    1.5096   -3.0554 H       1  UNL1        0.0620
@<TRIPOS>BOND
     1     1     2    1
     2     2     3    1
     3     3     4    1
     4     4     5    2
     5     4     6   am
     6     6     7    1
     7     7     8    1
     8     8     9   ar
     9     9    10   ar
    10    10    11   ar
    11    11    12    1
    12    11    13   ar
    13     8    13   ar
    14     6    14    1
    15    14    15    1
    16    15    16    2
    17    15    17   am
    18    17    18    1
    19    18    19    1
    20    19    20    1
    21    20    21    1
    22    21    22    1
    23    22    23    1
    24    18    23    1
    25    14    24    1
    26    24    25   ar
    27    25    26    1
    28    25    27   ar
    29    27    28   ar
    30    28    29    1
    31    28    30   ar
    32    30    31   ar
    33    24    31   ar
    34    31    32    1
    35     3    33    1
    36    33    34   ar
    37    34    35   ar
    38    35    36   ar
    39    36    37   ar
    40    37    38   ar
    41    33    38   ar
    42     1    39    1
    43     1    40    1
    44     1    41    1
    45     2    42    1
    46     2    43    1
    47     3    44    1
    48     7    45    1
    49     7    46    1
    50     9    47    1
    51    10    48    1
    52    12    49    1
    53    12    50    1
    54    12    51    1
    55    14    52    1
    56    17    53    1
    57    18    54    1
    58    19    55    1
    59    19    56    1
    60    20    57    1
    61    20    58    1
    62    21    59    1
    63    21    60    1
    64    22    61    1
    65    22    62    1
    66    23    63    1
    67    23    64    1
    68    26    65    1
    69    27    66    1
    70    29    67    1
    71    30    68    1
    72    32    69    1
    73    34    70    1
    74    35    71    1
    75    36    72    1
    76    37    73    1
    77    38    74    1
