@<TRIPOS>MOLECULE
*****
 48 49 0 0 0
SMALL
GASTEIGER

@<TRIPOS>ATOM
      1 C          12.7693   -6.6923    8.3423 C.3     1  UNL1       -0.0440
      2 C          13.2882   -5.6295    7.4045 C.2     1  UNL1       -0.0793
      3 C          14.6400   -5.9018    6.7882 C.3     1  UNL1       -0.0440
      4 C          12.5324   -4.5375    7.1123 C.2     1  UNL1       -0.0809
      5 C          11.1270   -4.3789    7.5647 C.3     1  UNL1       -0.0052
      6 C          10.1289   -3.2583    7.3343 C.3     1  UNL1        0.0479
      7 C          10.3616   -2.0154    6.5771 C.2     1  UNL1        0.2173
      8 O          11.4638   -1.8248    6.0480 O.2     1  UNL1       -0.2755
      9 N           9.2972   -1.0747    6.4870 N.am    1  UNL1       -0.3123
     10 C           9.5796    0.0008    5.5594 C.3     1  UNL1        0.0418
     11 C           9.2404    1.5226    5.5313 C.3     1  UNL1        0.0956
     12 O           8.6583    1.8212    4.2495 O.3     1  UNL1       -0.3856
     13 C          10.5100    2.4172    5.6749 C.ar    1  UNL1       -0.0172
     14 C          11.8013    1.8834    5.9198 C.ar    1  UNL1       -0.0497
     15 C          12.8847    2.6592    6.2911 C.ar    1  UNL1        0.0159
     16 C          12.7642    4.0341    6.2312 C.ar    1  UNL1        0.2732
     17 N          13.9678    4.8396    6.4363 N.pl3   1  UNL1        0.0796
     18 O          15.0226    4.2435    6.7048 O.2     1  UNL1        0.0414
     19 O          13.8680    6.0654    6.3018 O.co2   1  UNL1       -0.5760
     20 C          11.5366    4.6236    5.8923 C.ar    1  UNL1        0.0159
     21 C          10.4115    3.8170    5.6298 C.ar    1  UNL1       -0.0497
     22 C          10.7391   -3.4696    8.7176 C.3     1  UNL1       -0.0163
     23 C           9.8569   -4.0719    9.7850 C.3     1  UNL1       -0.0585
     24 C          11.6742   -2.4137    9.2591 C.3     1  UNL1       -0.0585
     25 H          13.4815   -7.5078    8.4980 H       1  UNL1        0.0274
     26 H          11.8548   -7.1457    7.9462 H       1  UNL1        0.0274
     27 H          12.5564   -6.2540    9.3231 H       1  UNL1        0.0274
     28 H          15.0663   -6.8482    7.1475 H       1  UNL1        0.0274
     29 H          15.3609   -5.1165    7.0305 H       1  UNL1        0.0274
     30 H          14.5611   -5.9979    5.6995 H       1  UNL1        0.0274
     31 H          12.9448   -3.8011    6.4206 H       1  UNL1        0.0575
     32 H          10.6402   -5.3511    7.5278 H       1  UNL1        0.0356
     33 H           9.1194   -3.6267    7.1752 H       1  UNL1        0.0405
     34 H           8.3569   -1.3296    6.7667 H       1  UNL1        0.1488
     35 H           9.6157   -0.4119    4.5497 H       1  UNL1        0.0491
     36 H          10.5635    0.0856    5.9270 H       1  UNL1        0.0491
     37 H           8.5060    1.8077    6.2928 H       1  UNL1        0.0659
     38 H           9.3519    1.6774    3.5787 H       1  UNL1        0.2103
     39 H          12.0668    0.8312    5.8450 H       1  UNL1        0.0623
     40 H          13.7984    2.1537    6.5973 H       1  UNL1        0.0685
     41 H          11.4401    5.7057    5.8424 H       1  UNL1        0.0685
     42 H           9.4641    4.2930    5.3778 H       1  UNL1        0.0623
     43 H           9.1908   -4.8429    9.3825 H       1  UNL1        0.0235
     44 H           9.2338   -3.2981   10.2445 H       1  UNL1        0.0235
     45 H          10.4660   -4.5333   10.5694 H       1  UNL1        0.0235
     46 H          12.3236   -1.9743    8.4978 H       1  UNL1        0.0235
     47 H          12.3143   -2.8320   10.0429 H       1  UNL1        0.0235
     48 H          11.0880   -1.6004    9.7047 H       1  UNL1        0.0235
@<TRIPOS>UNITY_ATOM_ATTR
17 1
charge 1
19 1
charge -1
@<TRIPOS>BOND
     1     1     2    1
     2     2     3    1
     3     2     4    2
     4     5     6    1
     5     6     7    1
     6     7     8    2
     7     7     9   am
     8     9    10    1
     9    11    13    1
    10    13    14   ar
    11    14    15   ar
    12    15    16   ar
    13    16    17    1
    14    17    18    2
    15    17    19    1
    16    16    20   ar
    17    20    21   ar
    18    13    21   ar
    19     6    22    1
    20     5    22    1
    21    22    23    1
    22    22    24    1
    23    11    12    1
    24    11    10    1
    25     5     4    1
    26     1    25    1
    27     1    26    1
    28     1    27    1
    29     3    28    1
    30     3    29    1
    31     3    30    1
    32     4    31    1
    33     5    32    1
    34     6    33    1
    35     9    34    1
    36    10    35    1
    37    10    36    1
    38    11    37    1
    39    12    38    1
    40    14    39    1
    41    15    40    1
    42    20    41    1
    43    21    42    1
    44    23    43    1
    45    23    44    1
    46    23    45    1
    47    24    46    1
    48    24    47    1
    49    24    48    1
