REMARK  8 active torsions:
REMARK  status: ('A' for Active; 'I' for Inactive)
REMARK    1  A    between atoms: C_2  and  C_27 
REMARK    2  A    between atoms: N_3  and  N_4 
REMARK       I    between atoms: N_4  and  C_5 
REMARK    3  A    between atoms: C_5  and  C_7 
REMARK    4  A    between atoms: C_9  and  C_10 
REMARK    5  A    between atoms: C_13  and  O_14 
REMARK    6  A    between atoms: O_14  and  C_15 
REMARK    7  A    between atoms: C_15  and  C_16 
REMARK    8  A    between atoms: C_30  and  N_31 
ROOT
ATOM      1  C   UNL d   1       2.529   4.266   2.528  0.00  0.00     0.148 A 
ATOM      2  C   UNL d   1       1.367   4.153   3.351  0.00  0.00     0.071 A 
ATOM      3  C   UNL d   1       1.062   5.432   3.786  0.00  0.00     0.062 A 
ATOM      4  N   UNL d   1       2.024   6.226   3.221  0.00  0.00    -0.277 N 
ATOM      5  N   UNL d   1       2.898   5.561   2.448  0.00  0.00    -0.169 NA
ATOM      6  H   UNL d   1       2.162   7.223   3.355  0.00  0.00     0.189 HD
ENDROOT
BRANCH   1   7
ATOM      7  C   UNL d   1       3.327   3.185   1.883  0.00  0.00     0.292 C 
ATOM      8  N   UNL d   1       2.582   2.136   1.329  0.00  0.00    -0.241 N 
ATOM      9  H   UNL d   1       1.577   2.222   1.296  0.00  0.00     0.192 HD
ATOM     10  O   UNL d   1       4.563   3.228   1.855  0.00  0.00    -0.264 OA
BRANCH   8  11
ATOM     11  N   UNL d   1       3.217   1.072   0.711  0.00  0.00    -0.176 NA
ATOM     12  C   UNL d   1       2.548   0.127   0.106  0.00  0.00     0.061 C 
ATOM     13  C   UNL d   1       1.039   0.043   0.024  0.00  0.00     0.073 C 
BRANCH  12  14
ATOM     14  C   UNL d   1       3.311  -1.011  -0.540  0.00  0.00    -0.010 A 
ATOM     15  C   UNL d   1       4.413  -1.561   0.121  0.00  0.00     0.015 A 
ATOM     16  C   UNL d   1       5.193  -2.559  -0.490  0.00  0.00     0.024 A 
ATOM     17  C   UNL d   1       4.837  -3.106  -1.726  0.00  0.00     0.005 A 
ATOM     18  C   UNL d   1       3.750  -2.540  -2.397  0.00  0.00     0.024 A 
ATOM     19  C   UNL d   1       2.981  -1.514  -1.807  0.00  0.00     0.015 A 
BRANCH  17  20
ATOM     20  N   UNL d   1       5.680  -4.021  -2.364  0.00  0.00    -0.303 NA
ATOM     21  H   UNL d   1       6.271  -4.568  -1.745  0.00  0.00     0.124 HD
ATOM     22  H   UNL d   1       5.252  -4.585  -3.092  0.00  0.00     0.124 HD
ENDBRANCH  17  20
ENDBRANCH  12  14
ENDBRANCH   8  11
ENDBRANCH   1   7
BRANCH   3  23
ATOM     23  C   UNL d   1       0.075   5.934   4.737  0.00  0.00    -0.008 A 
ATOM     24  C   UNL d   1      -0.818   6.956   4.395  0.00  0.00     0.016 A 
ATOM     25  C   UNL d   1      -1.698   7.482   5.352  0.00  0.00     0.037 A 
ATOM     26  C   UNL d   1      -1.749   6.948   6.641  0.00  0.00     0.069 A 
ATOM     27  C   UNL d   1      -0.865   5.923   6.982  0.00  0.00     0.037 A 
ATOM     28  C   UNL d   1       0.038   5.421   6.038  0.00  0.00     0.016 A 
BRANCH  26  29
ATOM     29  O   UNL d   1      -2.702   7.488   7.465  0.00  0.00    -0.347 OA
BRANCH  29  30
ATOM     30  C   UNL d   1      -2.869   6.835   8.728  0.00  0.00     0.216 C 
BRANCH  30  31
ATOM     31  C   UNL d   1      -4.023   7.430   9.500  0.00  0.00    -0.012 A 
ATOM     32  C   UNL d   1      -4.093   8.828   9.645  0.00  0.00     0.011 A 
ATOM     33  C   UNL d   1      -5.019   9.413  10.509  0.00  0.00     0.001 A 
ATOM     34  C   UNL d   1      -5.939   8.618  11.185  0.00  0.00     0.002 A 
ATOM     35  C   UNL d   1      -5.911   7.234  11.024  0.00  0.00     0.024 A 
ATOM     36  C   UNL d   1      -4.955   6.640  10.194  0.00  0.00     0.042 A 
ATOM     37 CL   UNL d   1      -4.982   4.915  10.075  0.00  0.00    -0.084 Cl
ENDBRANCH  30  31
ENDBRANCH  29  30
ENDBRANCH  26  29
ENDBRANCH   3  23
TORSDOF 8
