REMARK  6 active torsions:
REMARK  status: ('A' for Active; 'I' for Inactive)
REMARK       I    between atoms: C_2  and  N_3 
REMARK    1  A    between atoms: C_2  and  C_23 
REMARK    2  A    between atoms: N_3  and  N_4 
REMARK    3  A    between atoms: N_4  and  C_5 
REMARK    4  A    between atoms: C_14  and  N_15 
REMARK    5  A    between atoms: N_15  and  N_16 
REMARK       I    between atoms: N_16  and  C_17 
REMARK    6  A    between atoms: C_17  and  C_19 
ROOT
ATOM      1  C   UNL d   1       2.954  -1.399   3.393  0.00  0.00     0.169 A 
ATOM      2  N   UNL d   1       4.022  -0.691   3.835  0.00  0.00    -0.229 NA
ATOM      3  C   UNL d   1       4.667  -1.167   4.922  0.00  0.00     0.087 A 
ATOM      4  C   UNL d   1       5.751  -0.458   5.438  0.00  0.00     0.034 A 
ATOM      5  C   UNL d   1       6.483  -0.919   6.535  0.00  0.00     0.002 A 
ATOM      6  C   UNL d   1       6.125  -2.118   7.132  0.00  0.00     0.002 A 
ATOM      7  C   UNL d   1       5.026  -2.830   6.638  0.00  0.00     0.034 A 
ATOM      8  C   UNL d   1       4.274  -2.376   5.548  0.00  0.00     0.088 A 
ATOM      9  N   UNL d   1       3.204  -3.081   5.099  0.00  0.00    -0.225 NA
ATOM     10  C   UNL d   1       2.524  -2.599   4.026  0.00  0.00     0.185 A 
ENDROOT
BRANCH   1  11
ATOM     11  N   UNL d   1       2.224  -0.939   2.265  0.00  0.00    -0.182 NA
ATOM     12  H   UNL d   1       1.360  -0.469   2.563  0.00  0.00     0.154 HD
BRANCH  11  13
ATOM     13  N   UNL d   1       2.922  -0.256   1.268  0.00  0.00    -0.278 N 
ATOM     14  C   UNL d   1       2.161   0.049   0.135  0.00  0.00     0.340 C 
ATOM     15  O   UNL d   1       0.929  -0.053   0.162  0.00  0.00    -0.262 OA
ATOM     16  H   UNL d   1       3.935  -0.389   1.238  0.00  0.00     0.184 HD
BRANCH  14  17
ATOM     17  C   UNL d   1       2.953   0.528  -1.090  0.00  0.00     0.473 C 
ATOM     18  F   UNL d   1       2.677  -0.200  -2.208  0.00  0.00    -0.162 F 
ATOM     19  F   UNL d   1       2.690   1.827  -1.398  0.00  0.00    -0.162 F 
ATOM     20  F   UNL d   1       4.302   0.441  -0.904  0.00  0.00    -0.162 F 
ENDBRANCH  14  17
ENDBRANCH  11  13
ENDBRANCH   1  11
BRANCH  10  21
ATOM     21  N   UNL d   1       1.465  -3.390   3.526  0.00  0.00    -0.278 N 
ATOM     22  H   UNL d   1       1.218  -4.235   4.038  0.00  0.00     0.189 HD
BRANCH  21  23
ATOM     23  N   UNL d   1       0.625  -2.930   2.496  0.00  0.00    -0.261 N 
ATOM     24  C   UNL d   1      -0.404  -3.740   2.023  0.00  0.00     0.343 C 
ATOM     25  O   UNL d   1      -0.689  -4.819   2.554  0.00  0.00    -0.262 OA
ATOM     26  H   UNL d   1       1.044  -2.262   1.842  0.00  0.00     0.190 HD
BRANCH  24  27
ATOM     27  C   UNL d   1      -1.148  -3.137   0.807  0.00  0.00     0.473 C 
ATOM     28  F   UNL d   1      -1.678  -1.913   1.093  0.00  0.00    -0.162 F 
ATOM     29  F   UNL d   1      -0.314  -2.946  -0.256  0.00  0.00    -0.162 F 
ATOM     30  F   UNL d   1      -2.176  -3.907   0.359  0.00  0.00    -0.162 F 
ENDBRANCH  24  27
ENDBRANCH  21  23
ENDBRANCH  10  21
TORSDOF 6
