REMARK  8 active torsions:
REMARK  status: ('A' for Active; 'I' for Inactive)
REMARK    1  A    between atoms: C_2  and  C_3 
REMARK       I    between atoms: C_2  and  N_21 
REMARK    2  A    between atoms: C_3  and  S_4 
REMARK    3  A    between atoms: S_4  and  C_5 
REMARK    4  A    between atoms: C_8  and  N_9 
REMARK    5  A    between atoms: N_9  and  N_10 
REMARK    6  A    between atoms: C_11  and  C_12 
REMARK    7  A    between atoms: N_21  and  C_22 
REMARK    8  A    between atoms: C_22  and  C_23 
ROOT
ATOM      1  C   UNL d   1       2.812   0.236  -4.112  0.00  0.00     0.226 A 
ATOM      2  N   UNL d   1       3.198  -0.841  -4.806  0.00  0.00    -0.132 NA
ATOM      3  N   UNL d   1       3.758  -0.269  -5.894  0.00  0.00    -0.103 N 
ATOM      4  C   UNL d   1       3.725   1.101  -5.826  0.00  0.00     0.739 A 
ATOM      5  N   UNL d   1       3.115   1.431  -4.705  0.00  0.00    -0.034 NA
ATOM      6  H   UNL d   1       4.137  -0.866  -6.619  0.00  0.00     0.208 HD
ENDROOT
BRANCH   1   7
ATOM      7  S   UNL d   1       1.798   0.113  -2.696  0.00  0.00    -0.079 SA
BRANCH   7   8
ATOM      8  C   UNL d   1       2.979   0.108  -1.308  0.00  0.00     0.185 C 
BRANCH   8   9
ATOM      9  C   UNL d   1       2.250   0.063   0.048  0.00  0.00     0.227 C 
ATOM     10  O   UNL d   1       1.021   0.066   0.181  0.00  0.00    -0.273 OA
ATOM     11  N   UNL d   1       2.998   0.010   1.200  0.00  0.00    -0.356 N 
ATOM     12  H   UNL d   1       2.443   0.008   2.050  0.00  0.00     0.162 HD
BRANCH  11  13
ATOM     13  C   UNL d   1       4.438   0.018   1.307  0.00  0.00     0.162 C 
BRANCH  13  14
ATOM     14  C   UNL d   1       4.930   0.011   2.734  0.00  0.00    -0.019 A 
ATOM     15  C   UNL d   1       5.127  -1.216   3.396  0.00  0.00     0.010 A 
ATOM     16  C   UNL d   1       5.626  -1.260   4.703  0.00  0.00     0.001 A 
ATOM     17  C   UNL d   1       5.933  -0.080   5.374  0.00  0.00     0.002 A 
ATOM     18  C   UNL d   1       5.727   1.145   4.743  0.00  0.00     0.024 A 
ATOM     19  C   UNL d   1       5.220   1.193   3.438  0.00  0.00     0.042 A 
ATOM     20 CL   UNL d   1       4.976   2.754   2.740  0.00  0.00    -0.084 Cl
ENDBRANCH  13  14
ENDBRANCH  11  13
ENDBRANCH   8   9
ENDBRANCH   7   8
ENDBRANCH   1   7
BRANCH   4  21
ATOM     21  N   UNL d   1       4.263   1.904  -6.790  0.00  0.00    -0.106 N 
ATOM     22  H   UNL d   1       4.702   1.508  -7.619  0.00  0.00     0.208 HD
BRANCH  21  23
ATOM     23  N   UNL d   1       4.213   3.268  -6.651  0.00  0.00    -0.172 NA
ATOM     24  C   UNL d   1       4.677   4.006  -7.609  0.00  0.00     0.152 C 
BRANCH  24  25
ATOM     25  C   UNL d   1       4.603   5.489  -7.521  0.00  0.00     0.005 A 
ATOM     26  C   UNL d   1       4.839   6.112  -6.287  0.00  0.00     0.016 A 
ATOM     27  C   UNL d   1       4.782   7.508  -6.177  0.00  0.00     0.025 A 
ATOM     28  C   UNL d   1       4.471   8.280  -7.294  0.00  0.00     0.035 A 
ATOM     29 CL   UNL d   1       4.394   9.995  -7.154  0.00  0.00    -0.084 Cl
ATOM     30  C   UNL d   1       4.225   7.673  -8.524  0.00  0.00     0.048 A 
ATOM     31  C   UNL d   1       4.300   6.277  -8.640  0.00  0.00     0.047 A 
ATOM     32 CL   UNL d   1       3.965   5.586 -10.187  0.00  0.00    -0.083 Cl
ENDBRANCH  24  25
ENDBRANCH  21  23
ENDBRANCH   4  21
TORSDOF 8
