@<TRIPOS>MOLECULE
*****
 44 45 0 0 0
SMALL
GASTEIGER

@<TRIPOS>ATOM
      1 C           1.1337   -0.0904   -0.0014 C.3     1  UNL1       -0.0008
      2 N           2.5913    0.0093    0.1106 N.am    1  UNL1       -0.3285
      3 C           3.2492    0.8388    1.0071 C.2     1  UNL1        0.1465
      4 S           2.4483    1.8432    2.0949 S.2     1  UNL1       -0.0174
      5 N           4.6406    0.7740    0.9492 N.am    1  UNL1       -0.2458
      6 N           5.4356    1.5889    1.8287 N.am    1  UNL1       -0.2345
      7 C           6.8260    1.5801    1.7748 C.2     1  UNL1        0.2393
      8 O           7.4183    0.8303    0.9880 O.2     1  UNL1       -0.2734
      9 C           7.5130    2.5529    2.7821 C.3     1  UNL1        0.0778
     10 S           9.2918    2.6881    2.4847 S.3     1  UNL1       -0.0899
     11 C          10.0653    3.5753    3.7872 C.ar    1  UNL1        0.1774
     12 C          10.1162    4.9465    3.9798 C.ar    1  UNL1        0.3990
     13 N           9.4348    5.9801    3.2114 N.pl3   1  UNL1        0.1034
     14 O           9.5435    7.1499    3.5943 O.2     1  UNL1        0.0432
     15 O           8.7611    5.6250    2.2300 O.co2   1  UNL1       -0.5746
     16 N          10.9720    5.2804    5.0232 N.ar    1  UNL1       -0.1667
     17 C          11.4800    4.1422    5.4561 C.ar    1  UNL1        0.1145
     18 C          12.4497    3.9703    6.5942 C.3     1  UNL1       -0.0060
     19 N          10.9955    3.0659    4.7023 N.ar    1  UNL1       -0.3129
     20 C          11.5183    1.7128    4.9697 C.3     1  UNL1        0.0506
     21 C          11.1277    0.6585    3.9889 C.ar    1  UNL1       -0.0277
     22 C          10.2062   -0.3431    4.3184 C.ar    1  UNL1       -0.0569
     23 C           9.7185   -1.1798    3.3172 C.ar    1  UNL1       -0.0614
     24 C          10.0751   -0.9565    1.9861 C.ar    1  UNL1       -0.0617
     25 C          11.0161    0.0164    1.6613 C.ar    1  UNL1       -0.0614
     26 C          11.5977    0.7739    2.6702 C.ar    1  UNL1       -0.0569
     27 H           0.8598   -0.8097   -0.7792 H       1  UNL1        0.0426
     28 H           0.7151    0.8880   -0.2589 H       1  UNL1        0.0426
     29 H           0.7127   -0.4225    0.9532 H       1  UNL1        0.0426
     30 H           3.1275   -0.5681   -0.5242 H       1  UNL1        0.1474
     31 H           5.1609    0.1932    0.2925 H       1  UNL1        0.1718
     32 H           4.9081    2.2030    2.4466 H       1  UNL1        0.1728
     33 H           7.3315    2.1993    3.8012 H       1  UNL1        0.0475
     34 H           7.0781    3.5467    2.6554 H       1  UNL1        0.0475
     35 H          12.6721    4.9174    7.0954 H       1  UNL1        0.0307
     36 H          13.4023    3.5487    6.2512 H       1  UNL1        0.0307
     37 H          12.0392    3.2891    7.3490 H       1  UNL1        0.0307
     38 H          11.2164    1.4515    5.9920 H       1  UNL1        0.0542
     39 H          12.6158    1.7800    4.9635 H       1  UNL1        0.0542
     40 H           9.8155   -0.4398    5.3295 H       1  UNL1        0.0621
     41 H           9.0114   -1.9680    3.5584 H       1  UNL1        0.0618
     42 H           9.5722   -1.4977    1.1900 H       1  UNL1        0.0618
     43 H          11.2098    0.2728    0.6229 H       1  UNL1        0.0618
     44 H          12.2430    1.6096    2.3981 H       1  UNL1        0.0621
@<TRIPOS>UNITY_ATOM_ATTR
13 1
charge 1
15 1
charge -1
@<TRIPOS>BOND
     1     1     2    1
     2     2     3    1
     3     3     4    2
     4     3     5    1
     5     5     6    1
     6     6     7   am
     7     7     8    2
     8     7     9    1
     9     9    10    1
    10    10    11    1
    11    11    12   ar
    12    12    13    1
    13    13    14    2
    14    13    15    1
    15    12    16   ar
    16    16    17   ar
    17    17    18    1
    18    17    19   ar
    19    11    19   ar
    20    19    20    1
    21    20    21    1
    22    21    22   ar
    23    22    23   ar
    24    23    24   ar
    25    24    25   ar
    26    25    26   ar
    27    21    26   ar
    28     1    27    1
    29     1    28    1
    30     1    29    1
    31     2    30    1
    32     5    31    1
    33     6    32    1
    34     9    33    1
    35     9    34    1
    36    18    35    1
    37    18    36    1
    38    18    37    1
    39    20    38    1
    40    20    39    1
    41    22    40    1
    42    23    41    1
    43    24    42    1
    44    25    43    1
    45    26    44    1
