REMARK  6 active torsions:
REMARK  status: ('A' for Active; 'I' for Inactive)
REMARK    1  A    between atoms: C_2  and  C_3 
REMARK       I    between atoms: C_2  and  N_14 
REMARK    2  A    between atoms: C_4  and  C_5 
REMARK    3  A    between atoms: C_9  and  N_10 
REMARK    4  A    between atoms: N_14  and  N_15 
REMARK       I    between atoms: N_15  and  C_16 
REMARK       I    between atoms: C_16  and  N_18 
REMARK    5  A    between atoms: N_18  and  C_19 
REMARK    6  A    between atoms: C_19  and  C_20 
ROOT
ATOM      1  O   UNL d   1       1.099  -0.014  -0.133  0.00  0.00    -0.267 OA
ATOM      2  C   UNL d   1       2.329  -0.052  -0.102  0.00  0.00     0.259 C 
ATOM      3  N   UNL d   1       3.086   0.722  -0.958  0.00  0.00    -0.263 N 
ATOM      4  H   UNL d   1       2.574   1.312  -1.618  0.00  0.00     0.190 HD
ENDROOT
BRANCH   2   5
ATOM      5  C   UNL d   1       3.038  -0.933   0.868  0.00  0.00     0.076 C 
ATOM      6  C   UNL d   1       2.376  -1.725   1.732  0.00  0.00     0.017 C 
BRANCH   6   7
ATOM      7  C   UNL d   1       3.047  -2.548   2.756  0.00  0.00    -0.034 A 
ATOM      8  C   UNL d   1       2.514  -3.795   3.115  0.00  0.00     0.011 A 
ATOM      9  C   UNL d   1       3.015  -4.501   4.217  0.00  0.00     0.003 A 
ATOM     10  C   UNL d   1       4.100  -4.003   4.938  0.00  0.00     0.036 A 
ATOM     11  C   UNL d   1       4.655  -2.774   4.568  0.00  0.00     0.103 A 
ATOM     12  C   UNL d   1       4.135  -2.048   3.485  0.00  0.00     0.047 A 
BRANCH  11  13
ATOM     13  N   UNL d   1       5.748  -2.197   5.360  0.00  0.00    -0.116 N 
ATOM     14  O   UNL d   1       6.161  -2.842   6.333  0.00  0.00    -0.532 OA
ATOM     15  O   UNL d   1       6.192  -1.093   5.008  0.00  0.00    -0.532 OA
ENDBRANCH  11  13
ENDBRANCH   6   7
ENDBRANCH   2   5
BRANCH   3  16
ATOM     16  N   UNL d   1       4.500   0.786  -1.046  0.00  0.00    -0.249 N 
ATOM     17  C   UNL d   1       5.086   1.618  -1.989  0.00  0.00     0.334 C 
ATOM     18  O   UNL d   1       4.428   2.314  -2.763  0.00  0.00    -0.246 OA
ATOM     19  N   UNL d   1       6.467   1.587  -1.982  0.00  0.00    -0.341 N 
ATOM     20  H   UNL d   1       6.959   1.016  -1.313  0.00  0.00     0.164 HD
ATOM     21  H   UNL d   1       5.065   0.243  -0.415  0.00  0.00     0.192 HD
BRANCH  19  22
ATOM     22  C   UNL d   1       7.240   2.413  -2.903  0.00  0.00     0.129 C 
BRANCH  22  23
ATOM     23  C   UNL d   1       8.730   2.242  -2.739  0.00  0.00     0.003 A 
ATOM     24  C   UNL d   1       9.562   1.603  -3.831  0.00  0.00     0.007 A 
ATOM     25  C   UNL d   1       9.671   3.079  -3.587  0.00  0.00     0.007 A 
ENDBRANCH  22  23
ENDBRANCH  19  22
ENDBRANCH   3  16
TORSDOF 6
