@<TRIPOS>MOLECULE
*****
 63 65 0 0 0
SMALL
GASTEIGER

@<TRIPOS>ATOM
      1 C           0.9757   -0.0748    0.0715 C.3     1  UNL1       -0.0653
      2 C           2.4944   -0.0773    0.0770 C.3     1  UNL1       -0.0555
      3 C           3.0220    1.0913    0.8933 C.3     1  UNL1       -0.0463
      4 C           4.5520    1.1186    0.9241 C.3     1  UNL1        0.0106
      5 C           5.0065    2.3040    1.6793 C.ar    1  UNL1        0.1718
      6 N           5.6998    2.2524    2.8235 N.ar    1  UNL1       -0.0612
      7 O           5.7266    3.5915    3.2337 O.2     1  UNL1       -0.3361
      8 C           5.0484    4.2919    2.2790 C.ar    1  UNL1        0.2474
      9 C           4.9062    5.7732    2.4361 C.3     1  UNL1        0.0970
     10 C           6.3153    6.3622    2.5199 C.3     1  UNL1       -0.0379
     11 N           4.0488    6.3312    1.3595 N.pl3   1  UNL1       -0.3330
     12 C           3.7758    7.6444    1.0865 C.ar    1  UNL1        0.0278
     13 C           2.5080    8.0671    0.6634 C.ar    1  UNL1       -0.0391
     14 C           2.2390    9.4242    0.3680 C.ar    1  UNL1       -0.0387
     15 C           3.2197   10.3898    0.5852 C.ar    1  UNL1        0.0337
     16 N           2.9528   11.7768    0.4248 N.am    1  UNL1       -0.2811
     17 C           3.7714   12.7310    0.9908 C.2     1  UNL1        0.2624
     18 O           4.6669   12.4733    1.8091 O.2     1  UNL1       -0.2696
     19 C           3.5687   14.2007    0.6355 C.3     1  UNL1        0.0463
     20 N           4.8393   15.0717    0.9483 N.4     1  UNL1        0.2418
     21 C           4.6750   16.4809    0.4192 C.3     1  UNL1       -0.0314
     22 C           5.6233   17.4396    1.1345 C.3     1  UNL1       -0.0125
     23 C           6.9977   17.5777    0.4676 C.3     1  UNL1       -0.0481
     24 C           7.6123   16.2861   -0.0465 C.3     1  UNL1       -0.0481
     25 C           7.3737   15.1370    0.9050 C.3     1  UNL1       -0.0125
     26 C           6.1225   14.3911    0.4942 C.3     1  UNL1       -0.0314
     27 C           4.4823    9.9524    0.9603 C.ar    1  UNL1       -0.0387
     28 C           4.7459    8.6185    1.1869 C.ar    1  UNL1       -0.0391
     29 N           4.6111    3.5509    1.2892 N.ar    1  UNL1       -0.1945
     30 H           0.5970   -0.9179   -0.5120 H       1  UNL1        0.0230
     31 H           0.5886    0.8501   -0.3692 H       1  UNL1        0.0230
     32 H           0.5835   -0.1564    1.0905 H       1  UNL1        0.0230
     33 H           2.8640   -0.0085   -0.9525 H       1  UNL1        0.0263
     34 H           2.8604   -1.0197    0.4980 H       1  UNL1        0.0263
     35 H           2.6342    1.0402    1.9194 H       1  UNL1        0.0269
     36 H           2.6385    2.0286    0.4661 H       1  UNL1        0.0269
     37 H           4.9418    1.1845   -0.0987 H       1  UNL1        0.0345
     38 H           4.9420    0.1954    1.3659 H       1  UNL1        0.0345
     39 H           4.3920    5.9661    3.3848 H       1  UNL1        0.0593
     40 H           6.8379    6.2888    1.5580 H       1  UNL1        0.0252
     41 H           6.9264    5.8584    3.2751 H       1  UNL1        0.0252
     42 H           6.3032    7.3988    2.8592 H       1  UNL1        0.0252
     43 H           3.7475    5.6408    0.6705 H       1  UNL1        0.1468
     44 H           1.7021    7.3394    0.5748 H       1  UNL1        0.0637
     45 H           1.2569    9.6898   -0.0117 H       1  UNL1        0.0637
     46 H           2.0194   12.0229    0.1100 H       1  UNL1        0.1550
     47 H           2.7773   14.5838    1.2884 H       1  UNL1        0.0913
     48 H           3.3251   14.3552   -0.4183 H       1  UNL1        0.0913
     49 H           4.8844   15.0921    1.9793 H       1  UNL1        0.2038
     50 H           3.6373   16.7766    0.6069 H       1  UNL1        0.0814
     51 H           4.8388   16.4503   -0.6635 H       1  UNL1        0.0814
     52 H           5.7453   17.1411    2.1841 H       1  UNL1        0.0317
     53 H           5.1717   18.4384    1.1656 H       1  UNL1        0.0317
     54 H           7.6886   18.0305    1.1888 H       1  UNL1        0.0267
     55 H           6.9236   18.2728   -0.3759 H       1  UNL1        0.0267
     56 H           8.6880   16.4162   -0.2026 H       1  UNL1        0.0267
     57 H           7.1967   16.0486   -1.0347 H       1  UNL1        0.0267
     58 H           7.3343   15.4501    1.9567 H       1  UNL1        0.0317
     59 H           8.2126   14.4342    0.8344 H       1  UNL1        0.0317
     60 H           6.2412   13.4338    0.9845 H       1  UNL1        0.0814
     61 H           6.0333   14.2246   -0.5830 H       1  UNL1        0.0814
     62 H           5.3436   10.5959    1.0828 H       1  UNL1        0.0637
     63 H           5.7805    8.3963    1.3790 H       1  UNL1        0.0637
@<TRIPOS>UNITY_ATOM_ATTR
20 1
charge 1
@<TRIPOS>BOND
     1     1     2    1
     2     2     3    1
     3     3     4    1
     4     4     5    1
     5     5     6   ar
     6     6     7   ar
     7     7     8   ar
     8     8     9    1
     9     9    10    1
    10     9    11    1
    11    11    12    1
    12    12    13   ar
    13    13    14   ar
    14    14    15   ar
    15    15    16    1
    16    16    17   am
    17    17    18    2
    18    17    19    1
    19    19    20    1
    20    20    21    1
    21    21    22    1
    22    22    23    1
    23    23    24    1
    24    24    25    1
    25    25    26    1
    26    20    26    1
    27    15    27   ar
    28    27    28   ar
    29    12    28   ar
    30     8    29   ar
    31     5    29   ar
    32     1    30    1
    33     1    31    1
    34     1    32    1
    35     2    33    1
    36     2    34    1
    37     3    35    1
    38     3    36    1
    39     4    37    1
    40     4    38    1
    41     9    39    1
    42    10    40    1
    43    10    41    1
    44    10    42    1
    45    11    43    1
    46    13    44    1
    47    14    45    1
    48    16    46    1
    49    19    47    1
    50    19    48    1
    51    20    49    1
    52    21    50    1
    53    21    51    1
    54    22    52    1
    55    22    53    1
    56    23    54    1
    57    23    55    1
    58    24    56    1
    59    24    57    1
    60    25    58    1
    61    25    59    1
    62    26    60    1
    63    26    61    1
    64    27    62    1
    65    28    63    1
