REMARK  10 active torsions:
REMARK  status: ('A' for Active; 'I' for Inactive)
REMARK    1  A    between atoms: C_2  and  O_3 
REMARK    2  A    between atoms: O_3  and  C_4 
REMARK    3  A    between atoms: C_8  and  C_9 
REMARK    4  A    between atoms: N_10  and  N_11 
REMARK       I    between atoms: N_11  and  C_12 
REMARK    5  A    between atoms: C_12  and  C_14 
REMARK    6  A    between atoms: C_16  and  C_17 
REMARK    7  A    between atoms: C_20  and  O_21 
REMARK    8  A    between atoms: O_21  and  C_22 
REMARK    9  A    between atoms: C_22  and  C_23 
REMARK   10  A    between atoms: C_34  and  O_35 
ROOT
ATOM      1  C   UNL d   1       0.223   6.685  -3.760  0.00  0.00     0.121 A 
ATOM      2  C   UNL d   1       0.817   7.924  -3.903  0.00  0.00     0.071 A 
ATOM      3  C   UNL d   1       0.138   8.574  -4.967  0.00  0.00     0.089 A 
ATOM      4  N   UNL d   1      -0.867   7.812  -5.419  0.00  0.00    -0.174 NA
ATOM      5  N   UNL d   1      -0.763   6.667  -4.715  0.00  0.00    -0.272 N 
ATOM      6  H   UNL d   1      -1.411   5.912  -4.928  0.00  0.00     0.189 HD
ENDROOT
BRANCH   1   7
ATOM      7  C   UNL d   1       0.559   5.562  -2.918  0.00  0.00     0.289 C 
ATOM      8  N   UNL d   1       1.027   5.878  -1.638  0.00  0.00    -0.242 N 
ATOM      9  H   UNL d   1       1.022   6.836  -1.309  0.00  0.00     0.192 HD
ATOM     10  O   UNL d   1       0.430   4.400  -3.323  0.00  0.00    -0.264 OA
BRANCH   8  11
ATOM     11  N   UNL d   1       1.448   4.876  -0.806  0.00  0.00    -0.183 NA
ATOM     12  C   UNL d   1       1.860   5.156   0.394  0.00  0.00     0.153 C 
BRANCH  12  13
ATOM     13  C   UNL d   1       2.353   4.062   1.290  0.00  0.00     0.019 A 
ATOM     14  C   UNL d   1       2.766   4.350   2.599  0.00  0.00     0.016 A 
ATOM     15  C   UNL d   1       3.213   3.321   3.440  0.00  0.00     0.004 A 
ATOM     16  C   UNL d   1       3.251   2.005   2.979  0.00  0.00     0.040 A 
ATOM     17  C   UNL d   1       2.857   1.700   1.671  0.00  0.00     0.102 A 
ATOM     18  C   UNL d   1       2.416   2.738   0.828  0.00  0.00     0.110 A 
BRANCH  17  19
ATOM     19  O   UNL d   1       2.946   0.362   1.374  0.00  0.00    -0.349 OA
BRANCH  19  20
ATOM     20  C   UNL d   1       2.461  -0.075   0.104  0.00  0.00     0.171 C 
ATOM     21  C   UNL d   1       0.936  -0.100   0.079  0.00  0.00     0.034 C 
ENDBRANCH  19  20
ENDBRANCH  17  19
BRANCH  18  22
ATOM     22  O   UNL d   1       2.049   2.453  -0.463  0.00  0.00    -0.357 OA
ATOM     23  H   UNL d   1       1.666   3.245  -0.898  0.00  0.00     0.217 HD
ENDBRANCH  18  22
ENDBRANCH  12  13
ENDBRANCH   8  11
ENDBRANCH   1   7
BRANCH   3  24
ATOM     24  C   UNL d   1       0.442   9.886  -5.530  0.00  0.00    -0.005 A 
ATOM     25  C   UNL d   1       1.725  10.178  -6.015  0.00  0.00     0.016 A 
ATOM     26  C   UNL d   1       2.016  11.438  -6.553  0.00  0.00     0.037 A 
ATOM     27  C   UNL d   1       1.029  12.420  -6.605  0.00  0.00     0.069 A 
ATOM     28  C   UNL d   1      -0.243  12.140  -6.098  0.00  0.00     0.037 A 
ATOM     29  C   UNL d   1      -0.539  10.880  -5.571  0.00  0.00     0.016 A 
BRANCH  27  30
ATOM     30  O   UNL d   1       1.179  13.675  -7.118  0.00  0.00    -0.347 OA
BRANCH  30  31
ATOM     31  C   UNL d   1       2.435  14.001  -7.716  0.00  0.00     0.214 C 
BRANCH  31  32
ATOM     32  C   UNL d   1       2.376  15.428  -8.211  0.00  0.00    -0.034 A 
ATOM     33  C   UNL d   1       3.516  16.242  -8.153  0.00  0.00     0.011 A 
ATOM     34  C   UNL d   1       3.432  17.594  -8.495  0.00  0.00     0.024 A 
ATOM     35  C   UNL d   1       2.236  18.113  -8.986  0.00  0.00     0.034 A 
ATOM     36 CL   UNL d   1       2.162  19.756  -9.491  0.00  0.00    -0.084 Cl
ATOM     37  C   UNL d   1       1.110  17.303  -9.102  0.00  0.00     0.024 A 
ATOM     38  C   UNL d   1       1.182  15.964  -8.720  0.00  0.00     0.011 A 
ENDBRANCH  31  32
ENDBRANCH  30  31
ENDBRANCH  27  30
ENDBRANCH   3  24
TORSDOF 10
