@<TRIPOS>MOLECULE
*****
 39 40 0 0 0
SMALL
GASTEIGER

@<TRIPOS>ATOM
      1 C           1.0737    0.0391   -0.0679 C.3     1  UNL1       -0.0389
      2 C           2.5894    0.0257   -0.0539 C.2     1  UNL1       -0.0356
      3 C           3.3327    0.9002    0.6796 C.2     1  UNL1        0.0051
      4 C           4.8436    1.0114    0.6752 C.2     1  UNL1        0.2532
      5 O           5.5790    0.4063   -0.1078 O.2     1  UNL1       -0.2693
      6 N           5.4299    1.8413    1.6038 N.am    1  UNL1       -0.2306
      7 N           6.8608    1.8795    1.5975 N.am    1  UNL1       -0.2301
      8 C           7.5297    2.7183    2.4583 C.2     1  UNL1        0.2604
      9 O           6.9369    3.4632    3.2449 O.2     1  UNL1       -0.2687
     10 C           9.0269    2.7368    2.4225 C.ar    1  UNL1        0.0446
     11 C           9.7119    3.0004    3.6225 C.ar    1  UNL1       -0.0492
     12 C          11.0825    3.2873    3.6256 C.ar    1  UNL1       -0.0546
     13 C          11.8048    3.2505    2.4354 C.ar    1  UNL1        0.0156
     14 C          11.1360    2.9518    1.2393 C.ar    1  UNL1        0.2739
     15 N          11.8841    3.0019   -0.0264 N.pl3   1  UNL1        0.0796
     16 O          13.0920    3.2749    0.0244 O.2     1  UNL1        0.0414
     17 O          11.2571    2.7772   -1.0704 O.co2   1  UNL1       -0.5760
     18 C           9.7499    2.6858    1.2231 C.ar    1  UNL1        0.0277
     19 C           3.2094   -1.0163   -0.9151 C.ar    1  UNL1        0.0132
     20 C           4.2145   -1.8281   -0.3680 C.ar    1  UNL1       -0.0516
     21 C           5.0348   -2.6035   -1.1850 C.ar    1  UNL1       -0.0610
     22 C           4.7362   -2.7434   -2.5343 C.ar    1  UNL1       -0.0590
     23 C           3.6546   -2.0510   -3.0756 C.ar    1  UNL1       -0.0259
     24 C           2.9127   -1.1795   -2.2749 C.ar    1  UNL1        0.1308
     25 F           1.9283   -0.4774   -2.8575 F       1  UNL1       -0.2049
     26 H           0.6558    0.7771    0.6248 H       1  UNL1        0.0278
     27 H           0.6724   -0.9409    0.2193 H       1  UNL1        0.0278
     28 H           0.6756    0.2816   -1.0601 H       1  UNL1        0.0278
     29 H           2.8191    1.6130    1.3181 H       1  UNL1        0.0673
     30 H           4.9490    2.4829    2.2298 H       1  UNL1        0.1731
     31 H           7.3059    1.2014    0.9755 H       1  UNL1        0.1731
     32 H           9.1679    3.0157    4.5665 H       1  UNL1        0.0625
     33 H          11.5768    3.5799    4.5510 H       1  UNL1        0.0620
     34 H          12.8712    3.4753    2.4540 H       1  UNL1        0.0685
     35 H           9.2379    2.5101    0.2807 H       1  UNL1        0.0693
     36 H           4.4620   -1.7502    0.6885 H       1  UNL1        0.0624
     37 H           5.9353   -3.0444   -0.7661 H       1  UNL1        0.0618
     38 H           5.3535   -3.3824   -3.1583 H       1  UNL1        0.0618
     39 H           3.4146   -2.1479   -4.1293 H       1  UNL1        0.0646
@<TRIPOS>UNITY_ATOM_ATTR
15 1
charge 1
17 1
charge -1
@<TRIPOS>BOND
     1     1     2    1
     2     2     3    2
     3     3     4    1
     4     4     5    2
     5     4     6   am
     6     6     7    1
     7     7     8   am
     8     8     9    2
     9     8    10    1
    10    10    11   ar
    11    11    12   ar
    12    12    13   ar
    13    13    14   ar
    14    14    15    1
    15    15    16    2
    16    15    17    1
    17    14    18   ar
    18    10    18   ar
    19     2    19    1
    20    19    20   ar
    21    20    21   ar
    22    21    22   ar
    23    22    23   ar
    24    23    24   ar
    25    19    24   ar
    26    24    25    1
    27     1    26    1
    28     1    27    1
    29     1    28    1
    30     3    29    1
    31     6    30    1
    32     7    31    1
    33    11    32    1
    34    12    33    1
    35    13    34    1
    36    18    35    1
    37    20    36    1
    38    21    37    1
    39    22    38    1
    40    23    39    1
