@<TRIPOS>MOLECULE
*****
 42 43 0 0 0
SMALL
GASTEIGER

@<TRIPOS>ATOM
      1 C          -0.2199  -10.8452    4.5863 C.3     1  UNL1       -0.0394
      2 C          -0.1737   -9.3794    4.2433 C.ar    1  UNL1       -0.0458
      3 C           0.4479   -8.5186    5.1600 C.ar    1  UNL1       -0.0585
      4 C           0.5412   -7.1668    4.8987 C.ar    1  UNL1       -0.0597
      5 C           0.0239   -6.6656    3.7169 C.ar    1  UNL1       -0.0402
      6 C          -0.6154   -7.4785    2.7720 C.ar    1  UNL1        0.0366
      7 N          -1.1430   -6.8946    1.5941 N.am    1  UNL1       -0.2837
      8 C          -1.1504   -5.5461    1.2673 C.2     1  UNL1        0.2373
      9 O          -0.5374   -4.6670    1.8750 O.2     1  UNL1       -0.2734
     10 C          -1.9179   -5.1651   -0.0266 C.3     1  UNL1        0.0972
     11 C          -1.9278   -3.6287   -0.0940 C.3     1  UNL1       -0.0381
     12 N          -3.2890   -5.6963   -0.0643 N.am    1  UNL1       -0.3003
     13 C          -3.5453   -7.0413   -0.1871 C.2     1  UNL1        0.2447
     14 O          -2.6570   -7.8836   -0.3084 O.2     1  UNL1       -0.2702
     15 C          -4.9442   -7.4920   -0.1016 C.ar    1  UNL1        0.0368
     16 C          -5.8957   -6.9276   -0.9495 C.ar    1  UNL1       -0.0483
     17 C          -7.2022   -7.4170   -0.9373 C.ar    1  UNL1       -0.0427
     18 C          -7.5525   -8.4602   -0.0772 C.ar    1  UNL1        0.0410
     19 CL         -9.1728   -9.0375   -0.0616 Cl      1  UNL1       -0.0835
     20 C          -6.6006   -9.0370    0.7632 C.ar    1  UNL1       -0.0427
     21 C          -5.2879   -8.5561    0.7483 C.ar    1  UNL1       -0.0483
     22 C          -0.7311   -8.8665    3.0370 C.ar    1  UNL1       -0.0263
     23 C          -1.4301   -9.8423    2.1199 C.3     1  UNL1       -0.0377
     24 H           0.2814  -11.0441    5.5402 H       1  UNL1        0.0278
     25 H           0.2975  -11.4312    3.8208 H       1  UNL1        0.0278
     26 H          -1.2551  -11.1844    4.6826 H       1  UNL1        0.0278
     27 H           0.8694   -8.8957    6.0870 H       1  UNL1        0.0620
     28 H           1.0173   -6.4847    5.5954 H       1  UNL1        0.0618
     29 H           0.1530   -5.6016    3.5756 H       1  UNL1        0.0636
     30 H          -1.5743   -7.5167    0.9133 H       1  UNL1        0.1549
     31 H          -1.3635   -5.5654   -0.8841 H       1  UNL1        0.0592
     32 H          -2.4333   -3.2072    0.7857 H       1  UNL1        0.0252
     33 H          -2.4331   -3.2525   -0.9854 H       1  UNL1        0.0252
     34 H          -0.9046   -3.2285   -0.0915 H       1  UNL1        0.0252
     35 H          -4.0560   -5.0407    0.0256 H       1  UNL1        0.1498
     36 H          -5.6133   -6.1463   -1.6485 H       1  UNL1        0.0625
     37 H          -7.9385   -6.9922   -1.6136 H       1  UNL1        0.0632
     38 H          -6.8722   -9.8629    1.4175 H       1  UNL1        0.0632
     39 H          -4.5412   -9.0179    1.3920 H       1  UNL1        0.0625
     40 H          -1.8453   -9.3925    1.2259 H       1  UNL1        0.0278
     41 H          -2.2720  -10.3160    2.6383 H       1  UNL1        0.0278
     42 H          -0.7350  -10.6155    1.7768 H       1  UNL1        0.0278
@<TRIPOS>BOND
     1     1     2    1
     2     2     3   ar
     3     3     4   ar
     4     4     5   ar
     5     5     6   ar
     6     6     7    1
     7     7     8   am
     8     8     9    2
     9    10    12    1
    10    12    13   am
    11    13    14    2
    12    13    15    1
    13    15    16   ar
    14    16    17   ar
    15    17    18   ar
    16    18    19    1
    17    18    20   ar
    18    20    21   ar
    19    15    21   ar
    20     6    22   ar
    21     2    22   ar
    22    22    23    1
    23    10    11    1
    24    10     8    1
    25     1    24    1
    26     1    25    1
    27     1    26    1
    28     3    27    1
    29     4    28    1
    30     5    29    1
    31     7    30    1
    32    10    31    1
    33    11    32    1
    34    11    33    1
    35    11    34    1
    36    12    35    1
    37    16    36    1
    38    17    37    1
    39    20    38    1
    40    21    39    1
    41    23    40    1
    42    23    41    1
    43    23    42    1
