REMARK  6 active torsions:
REMARK  status: ('A' for Active; 'I' for Inactive)
REMARK    1  A    between atoms: C_2  and  C_3 
REMARK       I    between atoms: C_2  and  N_14 
REMARK    2  A    between atoms: C_3  and  N_4 
REMARK       I    between atoms: N_4  and  C_5 
REMARK    3  A    between atoms: C_5  and  C_7 
REMARK    4  A    between atoms: N_14  and  C_15 
REMARK    5  A    between atoms: C_19  and  N_20 
REMARK       I    between atoms: N_20  and  C_21 
REMARK    6  A    between atoms: C_21  and  C_23 
ROOT
ATOM      1  O   UNL d   1       1.024  -0.035  -0.124  0.00  0.00    -0.271 OA
ATOM      2  C   UNL d   1       2.254   0.071  -0.091  0.00  0.00     0.239 C 
ATOM      3  N   UNL d   1       3.021  -0.689  -0.961  0.00  0.00    -0.326 N 
ATOM      4  H   UNL d   1       2.488  -1.232  -1.630  0.00  0.00     0.169 HD
ENDROOT
BRANCH   3   5
ATOM      5  C   UNL d   1       4.420  -0.831  -0.971  0.00  0.00     0.036 A 
ATOM      6  C   UNL d   1       5.140  -1.009  -2.140  0.00  0.00     0.029 A 
ATOM      7  C   UNL d   1       6.534  -1.170  -2.064  0.00  0.00     0.004 A 
ATOM      8  C   UNL d   1       7.208  -1.122  -0.824  0.00  0.00     0.029 A 
ATOM      9  C   UNL d   1       6.478  -0.995   0.358  0.00  0.00     0.037 A 
ATOM     10  C   UNL d   1       5.098  -0.895   0.235  0.00  0.00     0.059 A 
BRANCH   9  11
ATOM     11  N   UNL d   1       7.092  -1.001   1.644  0.00  0.00    -0.322 N 
ATOM     12  C   UNL d   1       6.403  -0.943   2.866  0.00  0.00     0.263 C 
ATOM     13  O   UNL d   1       5.174  -0.884   2.978  0.00  0.00    -0.267 OA
ATOM     14  H   UNL d   1       8.098  -1.109   1.677  0.00  0.00     0.169 HD
BRANCH  12  15
ATOM     15  C   UNL d   1       7.209  -0.970   4.065  0.00  0.00     0.072 A 
ATOM     16  C   UNL d   1       8.362  -0.280   4.373  0.00  0.00     0.025 A 
ATOM     17  C   UNL d   1       8.769  -0.499   5.723  0.00  0.00     0.009 A 
ATOM     18  C   UNL d   1       7.923  -1.352   6.396  0.00  0.00     0.050 A 
ATOM     19  S   UNL d   1       6.628  -1.867   5.413  0.00  0.00    -0.097 SA
ENDBRANCH  12  15
ENDBRANCH   9  11
ENDBRANCH   3   5
BRANCH   2  20
ATOM     20  C   UNL d   1       2.947   1.104   0.828  0.00  0.00     0.226 C 
BRANCH  20  21
ATOM     21  N   UNL d   1       2.039   1.988   1.538  0.00  0.00    -0.348 N 
ATOM     22  C   UNL d   1       2.542   2.876   2.468  0.00  0.00     0.253 C 
ATOM     23  O   UNL d   1       3.743   3.081   2.620  0.00  0.00    -0.268 OA
ATOM     24  H   UNL d   1       1.054   1.748   1.520  0.00  0.00     0.163 HD
BRANCH  22  25
ATOM     25  C   UNL d   1       1.570   3.664   3.268  0.00  0.00     0.053 A 
ATOM     26  C   UNL d   1       1.857   5.031   3.438  0.00  0.00     0.019 A 
ATOM     27  C   UNL d   1       1.008   5.854   4.183  0.00  0.00     0.001 A 
ATOM     28  C   UNL d   1      -0.131   5.317   4.775  0.00  0.00     0.002 A 
ATOM     29  C   UNL d   1      -0.413   3.958   4.629  0.00  0.00     0.025 A 
ATOM     30  C   UNL d   1       0.434   3.126   3.883  0.00  0.00     0.049 A 
ATOM     31 CL   UNL d   1       0.031   1.448   3.821  0.00  0.00    -0.083 Cl
ENDBRANCH  22  25
ENDBRANCH  20  21
ENDBRANCH   2  20
TORSDOF 6
