@<TRIPOS>MOLECULE
*****
 57 59 0 0 0
SMALL
GASTEIGER

@<TRIPOS>ATOM
      1 C           1.1081    0.0401   -0.0363 C.3     1  UNL1        0.0788
      2 O           2.5333   -0.0421   -0.1151 O.3     1  UNL1       -0.4950
      3 C           3.1102    0.8472   -0.9836 C.ar    1  UNL1        0.1243
      4 C           4.2348    0.4205   -1.7036 C.ar    1  UNL1        0.0218
      5 C           4.9271    1.3106   -2.5379 C.ar    1  UNL1        0.1243
      6 O           6.0890    0.8597   -3.1114 O.3     1  UNL1       -0.4950
      7 C           6.8679    1.8511   -3.7908 C.3     1  UNL1        0.0788
      8 C           4.4315    2.5981   -2.7147 C.ar    1  UNL1       -0.0061
      9 C           3.3420    3.0380   -1.9662 C.ar    1  UNL1        0.0630
     10 C           2.9281    4.4590   -2.0851 C.2     1  UNL1        0.3408
     11 O           3.5427    5.2006   -2.8406 O.2     1  UNL1       -0.2483
     12 N           1.8379    4.8041   -1.3235 N.am    1  UNL1        0.0006
     13 C           1.3255    5.9857   -1.4553 C.2     1  UNL1        0.3844
     14 N           0.1391    6.2707   -0.8450 N.pl3   1  UNL1       -0.2729
     15 C          -0.4419    5.5919    0.3014 C.3     1  UNL1        0.0912
     16 C          -1.4757    6.4305    1.0454 C.ar    1  UNL1        0.0040
     17 C          -1.9425    7.6778    0.6060 C.ar    1  UNL1       -0.0527
     18 C          -2.8554    8.4120    1.3560 C.ar    1  UNL1       -0.0432
     19 C          -3.3267    7.8629    2.5289 C.ar    1  UNL1        0.0276
     20 N          -2.9354    6.6568    2.9904 N.ar    1  UNL1       -0.2629
     21 C          -2.0226    5.9753    2.2475 C.ar    1  UNL1        0.0337
     22 N           1.7974    6.9912   -2.2687 N.pl3   1  UNL1       -0.2448
     23 C           1.5801    8.3862   -2.2516 C.ar    1  UNL1        0.1027
     24 C           1.5374    9.0491   -3.4964 C.ar    1  UNL1       -0.0227
     25 C           1.2861   10.4222   -3.5853 C.ar    1  UNL1       -0.0556
     26 C           0.9931   11.1499   -2.4347 C.ar    1  UNL1       -0.0500
     27 C           0.5516   12.5806   -2.5044 C.3     1  UNL1       -0.0397
     28 C           1.0766   10.5128   -1.1933 C.ar    1  UNL1       -0.0527
     29 C           1.4028    9.1498   -1.0809 C.ar    1  UNL1       -0.0118
     30 C           1.5989    8.6031    0.3073 C.3     1  UNL1       -0.0364
     31 C           2.6906    2.1683   -1.0921 C.ar    1  UNL1       -0.0061
     32 H           0.7702   -0.6345    0.7560 H       1  UNL1        0.0660
     33 H           0.6675   -0.2877   -0.9825 H       1  UNL1        0.0660
     34 H           0.7361    1.0344    0.2304 H       1  UNL1        0.0660
     35 H           4.5757   -0.6081   -1.6088 H       1  UNL1        0.0691
     36 H           7.8233    1.4083   -4.0843 H       1  UNL1        0.0660
     37 H           7.0929    2.7127   -3.1475 H       1  UNL1        0.0660
     38 H           6.3554    2.1742   -4.7036 H       1  UNL1        0.0660
     39 H           4.8913    3.2930   -3.4089 H       1  UNL1        0.0662
     40 H          -0.1768    7.2029   -1.0384 H       1  UNL1        0.2580
     41 H           0.3476    5.3165    1.0154 H       1  UNL1        0.0707
     42 H          -0.9218    4.6744   -0.0516 H       1  UNL1        0.0707
     43 H          -1.6105    8.1282   -0.3212 H       1  UNL1        0.0622
     44 H          -3.1836    9.3880    1.0171 H       1  UNL1        0.0633
     45 H          -4.0521    8.3951    3.1376 H       1  UNL1        0.0829
     46 H          -1.7426    5.0174    2.6811 H       1  UNL1        0.0833
     47 H           2.6558    6.7435   -2.7702 H       1  UNL1        0.2646
     48 H           1.6649    8.4881   -4.4220 H       1  UNL1        0.0652
     49 H           1.2959   10.9105   -4.5577 H       1  UNL1        0.0621
     50 H           0.5246   12.9441   -3.5362 H       1  UNL1        0.0278
     51 H           1.2244   13.2229   -1.9288 H       1  UNL1        0.0278
     52 H          -0.4624   12.6666   -2.0973 H       1  UNL1        0.0278
     53 H           0.8958   11.0926   -0.2898 H       1  UNL1        0.0624
     54 H           1.4989    9.3845    1.0644 H       1  UNL1        0.0279
     55 H           2.5789    8.1302    0.4013 H       1  UNL1        0.0279
     56 H           0.8405    7.8875    0.5910 H       1  UNL1        0.0279
     57 H           1.8778    2.5491   -0.4854 H       1  UNL1        0.0662
@<TRIPOS>BOND
     1     1     2    1
     2     2     3    1
     3     3     4   ar
     4     4     5   ar
     5     5     6    1
     6     6     7    1
     7     5     8   ar
     8     8     9   ar
     9     9    10    1
    10    10    11    2
    11    10    12    1
    12    12    13    2
    13    13    14    1
    14    14    15    1
    15    15    16    1
    16    16    17   ar
    17    17    18   ar
    18    18    19   ar
    19    19    20   ar
    20    20    21   ar
    21    16    21   ar
    22    13    22    1
    23    22    23    1
    24    23    24   ar
    25    24    25   ar
    26    25    26   ar
    27    26    27    1
    28    26    28   ar
    29    28    29   ar
    30    23    29   ar
    31    29    30    1
    32     9    31   ar
    33     3    31   ar
    34     1    32    1
    35     1    33    1
    36     1    34    1
    37     4    35    1
    38     7    36    1
    39     7    37    1
    40     7    38    1
    41     8    39    1
    42    14    40    1
    43    15    41    1
    44    15    42    1
    45    17    43    1
    46    18    44    1
    47    19    45    1
    48    21    46    1
    49    22    47    1
    50    24    48    1
    51    25    49    1
    52    27    50    1
    53    27    51    1
    54    27    52    1
    55    28    53    1
    56    30    54    1
    57    30    55    1
    58    30    56    1
    59    31    57    1
