REMARK  7 active torsions:
REMARK  status: ('A' for Active; 'I' for Inactive)
REMARK    1  A    between atoms: C_12  and  N_13 
REMARK       I    between atoms: N_13  and  C_14 
REMARK    2  A    between atoms: C_14  and  C_16 
REMARK    3  A    between atoms: C_16  and  S_17 
REMARK    4  A    between atoms: S_17  and  C_18 
REMARK    5  A    between atoms: C_21  and  C_22 
REMARK    6  A    between atoms: C_22  and  C_23 
REMARK    7  A    between atoms: N_28  and  C_29 
ROOT
ATOM      1  C   UNL d   1       3.861  -4.020  -5.587  0.00  0.00     0.180 C 
ENDROOT
BRANCH   1   2
ATOM      2  C   UNL d   1       4.345  -3.799  -4.146  0.00  0.00     0.229 C 
ATOM      3  N   UNL d   1       3.638  -2.878  -3.399  0.00  0.00    -0.330 N 
ATOM      4  H   UNL d   1       2.811  -2.409  -3.739  0.00  0.00     0.165 HD
ATOM      5  O   UNL d   1       5.338  -4.357  -3.685  0.00  0.00    -0.273 OA
BRANCH   3   6
ATOM      6  C   UNL d   1       4.112  -2.571  -2.075  0.00  0.00     0.264 A 
ATOM      7  O   UNL d   1       3.406  -3.433  -1.160  0.00  0.00    -0.353 OA
ATOM      8  C   UNL d   1       2.723  -2.628  -0.169  0.00  0.00     0.152 A 
ATOM      9  C   UNL d   1       2.996  -1.221  -0.564  0.00  0.00    -0.017 A 
ATOM     10  C   UNL d   1       1.255  -3.021  -0.223  0.00  0.00     0.044 C 
ATOM     11  C   UNL d   1       3.761  -1.213  -1.651  0.00  0.00     0.066 A 
ATOM     12  C   UNL d   1       2.536   0.002   0.141  0.00  0.00     0.105 A 
ATOM     13  C   UNL d   1       4.226   0.027  -2.245  0.00  0.00     0.266 A 
ATOM     14  N   UNL d   1       3.821   1.181  -1.617  0.00  0.00    -0.287 N 
ATOM     15  O   UNL d   1       4.922   0.041  -3.263  0.00  0.00    -0.266 OA
ATOM     16  N   UNL d   1       3.028   1.260  -0.450  0.00  0.00    -0.229 NA
ATOM     17  H   UNL d   1       4.102   2.047  -2.071  0.00  0.00     0.184 HD
ATOM     18  H   UNL d   1       3.546   1.778   0.264  0.00  0.00     0.147 HD
ATOM     19  C   UNL d   1       1.016   0.105   0.130  0.00  0.00     0.033 C 
ENDBRANCH   3   6
ENDBRANCH   1   2
BRANCH   1  20
ATOM     20  S   UNL d   1       5.017  -5.178  -6.456  0.00  0.00    -0.118 SA
BRANCH  20  21
ATOM     21  C   UNL d   1       4.357  -5.395  -8.141  0.00  0.00     0.244 C 
ATOM     22  N   UNL d   1       4.895  -6.629  -8.713  0.00  0.00    -0.183 NA
ATOM     23  N   UNL d   1       6.113  -6.443  -9.307  0.00  0.00    -0.185 NA
ATOM     24  H   UNL d   1       4.827  -7.459  -8.129  0.00  0.00     0.152 HD
ATOM     25  C   UNL d   1       6.173  -5.171  -9.582  0.00  0.00     0.123 C 
ATOM     26  N   UNL d   1       4.998  -4.479  -9.092  0.00  0.00    -0.336 N 
BRANCH  25  27
ATOM     27  C   UNL d   1       7.305  -4.490 -10.327  0.00  0.00     0.126 C 
BRANCH  27  28
ATOM     28  C   UNL d   1       8.401  -5.477 -10.640  0.00  0.00    -0.011 A 
ATOM     29  C   UNL d   1       8.303  -6.593 -11.450  0.00  0.00     0.015 A 
ATOM     30  C   UNL d   1       9.463  -7.412 -11.399  0.00  0.00     0.008 A 
ATOM     31  C   UNL d   1      10.450  -6.856 -10.617  0.00  0.00     0.050 A 
ATOM     32  S   UNL d   1       9.963  -5.356  -9.944  0.00  0.00    -0.106 SA
ENDBRANCH  27  28
ENDBRANCH  25  27
BRANCH  26  33
ATOM     33  C   UNL d   1       4.449  -3.237  -9.637  0.00  0.00     0.088 C 
ATOM     34  C   UNL d   1       3.088  -3.421 -10.340  0.00  0.00     0.025 C 
ATOM     35  C   UNL d   1       2.485  -2.064 -10.755  0.00  0.00     0.002 C 
ATOM     36  C   UNL d   1       2.370  -1.099  -9.576  0.00  0.00     0.000 C 
ATOM     37  C   UNL d   1       3.726  -0.911  -8.906  0.00  0.00     0.002 C 
ATOM     38  C   UNL d   1       4.298  -2.252  -8.494  0.00  0.00     0.025 C 
ENDBRANCH  26  33
ENDBRANCH  20  21
ENDBRANCH   1  20
TORSDOF 7
