REMARK  12 active torsions:
REMARK  status: ('A' for Active; 'I' for Inactive)
REMARK    1  A    between atoms: N_2  and  C_4 
REMARK    2  A    between atoms: C_5  and  N_6 
REMARK    3  A    between atoms: N_6  and  C_7 
REMARK    4  A    between atoms: C_7  and  C_8 
REMARK    5  A    between atoms: C_8  and  O_9 
REMARK    6  A    between atoms: C_11  and  N_12 
REMARK    7  A    between atoms: N_12  and  C_13 
REMARK    8  A    between atoms: C_13  and  C_14 
REMARK    9  A    between atoms: C_14  and  C_15 
REMARK   10  A    between atoms: C_15  and  N_16 
REMARK   11  A    between atoms: N_19  and  C_20 
REMARK   12  A    between atoms: C_20  and  C_21 
ROOT
ATOM      1  N   UNL d   1       5.009  -1.126   4.860  0.00  0.00    -0.388 N 
ATOM      2  H   UNL d   1       5.827  -0.565   5.091  0.00  0.00     0.159 HD
ENDROOT
BRANCH   1   3
ATOM      3  C   UNL d   1       4.346  -0.790   3.687  0.00  0.00     0.064 A 
ATOM      4  C   UNL d   1       3.206  -1.495   3.227  0.00  0.00     0.063 A 
ATOM      5  C   UNL d   1       2.458  -1.242   2.040  0.00  0.00     0.066 A 
ATOM      6  C   UNL d   1       2.878  -0.186   1.198  0.00  0.00     0.162 A 
ATOM      7  C   UNL d   1       3.994   0.579   1.583  0.00  0.00     0.155 A 
ATOM      8  N   UNL d   1       4.593   1.638   1.020  0.00  0.00    -0.100 NA
ATOM      9  C   UNL d   1       4.719   0.269   2.817  0.00  0.00     0.146 A 
ATOM     10  O   UNL d   1       5.658   1.965   1.836  0.00  0.00    -0.106 OA
ATOM     11  N   UNL d   1       5.735   1.134   2.940  0.00  0.00    -0.101 NA
BRANCH   5  12
ATOM     12  N   UNL d   1       1.436  -2.122   1.667  0.00  0.00    -0.386 N 
ATOM     13  H   UNL d   1       0.764  -1.759   0.982  0.00  0.00     0.159 HD
BRANCH  12  14
ATOM     14  C   UNL d   1       0.931  -3.149   2.568  0.00  0.00     0.146 C 
BRANCH  14  15
ATOM     15  C   UNL d   1      -0.298  -3.849   1.999  0.00  0.00     0.183 C 
BRANCH  15  16
ATOM     16  O   UNL d   1      -0.696  -4.902   2.872  0.00  0.00    -0.399 OA
ATOM     17  H   UNL d   1       0.004  -5.577   2.855  0.00  0.00     0.209 HD
ENDBRANCH  15  16
ENDBRANCH  14  15
ENDBRANCH  12  14
ENDBRANCH   5  12
BRANCH   6  18
ATOM     18  N   UNL d   1       2.194   0.126  -0.028  0.00  0.00    -0.111 N 
ATOM     19  O   UNL d   1       0.960   0.116  -0.001  0.00  0.00    -0.532 OA
ATOM     20  O   UNL d   1       2.885   0.317  -1.044  0.00  0.00    -0.532 OA
ENDBRANCH   6  18
ENDBRANCH   1   3
BRANCH   1  21
ATOM     21  C   UNL d   1       4.577  -2.232   5.690  0.00  0.00     0.121 C 
BRANCH  21  22
ATOM     22  C   UNL d   1       5.468  -2.388   6.914  0.00  0.00     0.047 C 
BRANCH  22  23
ATOM     23  C   UNL d   1       4.966  -3.542   7.780  0.00  0.00     0.236 C 
BRANCH  23  24
ATOM     24  N   UNL d   1       5.811  -3.698   9.027  0.00  0.00    -0.068 N 
ATOM     25  C   UNL d   1       5.655  -2.501   9.974  0.00  0.00     0.265 C 
ATOM     26  C   UNL d   1       6.384  -2.778  11.303  0.00  0.00     0.300 C 
ATOM     27  N   UNL d   1       5.843  -3.975  11.965  0.00  0.00     0.095 N 
ATOM     28  C   UNL d   1       6.215  -5.123  11.110  0.00  0.00     0.300 C 
ATOM     29  C   UNL d   1       5.546  -5.063   9.717  0.00  0.00     0.265 C 
ATOM     30  H   UNL d   1       6.802  -3.714   8.756  0.00  0.00     0.280 HD
BRANCH  27  31
ATOM     31  C   UNL d   1       4.364  -3.921  12.157  0.00  0.00     0.311 C 
BRANCH  31  32
ATOM     32  C   UNL d   1       3.835  -2.771  12.983  0.00  0.00    -0.030 C 
ATOM     33  C   UNL d   1       4.093  -1.415  12.714  0.00  0.00     0.009 C 
ATOM     34  C   UNL d   1       3.733  -0.415  13.604  0.00  0.00     0.001 C 
ATOM     35  C   UNL d   1       2.908  -0.731  14.666  0.00  0.00     0.000 C 
ATOM     36  C   UNL d   1       2.458  -2.039  14.830  0.00  0.00     0.001 C 
ATOM     37  C   UNL d   1       2.963  -3.063  14.032  0.00  0.00     0.009 C 
ENDBRANCH  31  32
ENDBRANCH  27  31
ENDBRANCH  23  24
ENDBRANCH  22  23
ENDBRANCH  21  22
ENDBRANCH   1  21
TORSDOF 12
