@<TRIPOS>MOLECULE
*****
 49 51 0 0 0
SMALL
GASTEIGER

@<TRIPOS>ATOM
      1 O           1.1872   -0.1063   -0.0108 O.2     1  UNL1       -0.2743
      2 C           2.4167   -0.0406   -0.0217 C.2     1  UNL1        0.2291
      3 C           3.1663    1.2494   -0.3167 C.3     1  UNL1        0.0257
      4 C           2.1942    2.3842   -0.5980 C.3     1  UNL1       -0.0408
      5 C           2.8794    3.7145   -0.9276 C.3     1  UNL1       -0.0272
      6 C           1.8914    4.8389   -1.1640 C.ar    1  UNL1       -0.0473
      7 C           2.3339    6.1681   -1.1688 C.ar    1  UNL1       -0.0586
      8 C           1.4104    7.2155   -1.2380 C.ar    1  UNL1       -0.0615
      9 C           0.0502    6.9484   -1.3926 C.ar    1  UNL1       -0.0617
     10 C          -0.3949    5.6355   -1.4481 C.ar    1  UNL1       -0.0615
     11 C           0.5188    4.5944   -1.3354 C.ar    1  UNL1       -0.0586
     12 N           3.1660   -1.1634    0.2328 N.am    1  UNL1       -0.2341
     13 N           4.5692   -1.2196    0.2392 N.am    1  UNL1       -0.2302
     14 C           5.1814   -2.4341    0.5006 C.2     1  UNL1        0.2654
     15 O           4.5557   -3.4770    0.6718 O.2     1  UNL1       -0.2685
     16 C           6.6734   -2.4124    0.5105 C.ar    1  UNL1        0.1023
     17 C           7.3474   -3.4203   -0.0795 C.ar    1  UNL1       -0.0424
     18 C           8.7975   -3.4621   -0.0878 C.ar    1  UNL1       -0.0368
     19 C           9.5025   -2.5046    0.5342 C.ar    1  UNL1        0.0492
     20 C          10.9764   -2.4741    0.5378 C.ar    1  UNL1       -0.0016
     21 C          11.6922   -2.4263    1.7428 C.ar    1  UNL1       -0.0526
     22 C          13.0790   -2.2465    1.7371 C.ar    1  UNL1       -0.0611
     23 C          13.7719   -2.1892    0.5291 C.ar    1  UNL1       -0.0617
     24 C          13.0763   -2.2736   -0.6748 C.ar    1  UNL1       -0.0611
     25 C          11.6853   -2.4066   -0.6707 C.ar    1  UNL1       -0.0526
     26 N           8.8312   -1.4777    1.1600 N.ar    1  UNL1       -0.3215
     27 C           7.4626   -1.3425    1.1791 C.ar    1  UNL1        0.2614
     28 O           6.9154   -0.3731    1.7093 O.2     1  UNL1       -0.2671
     29 H           3.7982    1.0946   -1.1968 H       1  UNL1        0.0359
     30 H           3.7900    1.5051    0.5450 H       1  UNL1        0.0359
     31 H           1.5329    2.5219    0.2696 H       1  UNL1        0.0273
     32 H           1.5609    2.0815   -1.4416 H       1  UNL1        0.0273
     33 H           3.5201    3.6009   -1.8101 H       1  UNL1        0.0313
     34 H           3.5234    3.9929   -0.0823 H       1  UNL1        0.0313
     35 H           3.3942    6.4000   -1.0929 H       1  UNL1        0.0620
     36 H           1.7481    8.2445   -1.1518 H       1  UNL1        0.0618
     37 H          -0.6656    7.7605   -1.4698 H       1  UNL1        0.0618
     38 H          -1.4512    5.4054   -1.5520 H       1  UNL1        0.0618
     39 H           0.1180    3.5853   -1.3598 H       1  UNL1        0.0620
     40 H           2.6639   -2.0285    0.4352 H       1  UNL1        0.1728
     41 H           5.1046   -0.3612    0.1524 H       1  UNL1        0.1731
     42 H           6.8272   -4.2369   -0.5732 H       1  UNL1        0.0627
     43 H           9.2863   -4.2848   -0.6036 H       1  UNL1        0.0638
     44 H          11.1771   -2.5272    2.6959 H       1  UNL1        0.0624
     45 H          13.6190   -2.1400    2.6751 H       1  UNL1        0.0618
     46 H          14.8538   -2.0792    0.5262 H       1  UNL1        0.0618
     47 H          13.6135   -2.2133   -1.6182 H       1  UNL1        0.0618
     48 H          11.1575   -2.4363   -1.6211 H       1  UNL1        0.0624
     49 H           9.3646   -0.7410    1.6069 H       1  UNL1        0.1689
@<TRIPOS>BOND
     1     1     2    2
     2     2     3    1
     3     3     4    1
     4     4     5    1
     5     5     6    1
     6     6     7   ar
     7     7     8   ar
     8     8     9   ar
     9     9    10   ar
    10    10    11   ar
    11     6    11   ar
    12     2    12   am
    13    12    13    1
    14    13    14   am
    15    14    15    2
    16    14    16    1
    17    16    17   ar
    18    17    18   ar
    19    18    19   ar
    20    19    20    1
    21    20    21   ar
    22    21    22   ar
    23    22    23   ar
    24    23    24   ar
    25    24    25   ar
    26    20    25   ar
    27    19    26   ar
    28    26    27   ar
    29    16    27   ar
    30    27    28    2
    31     3    29    1
    32     3    30    1
    33     4    31    1
    34     4    32    1
    35     5    33    1
    36     5    34    1
    37     7    35    1
    38     8    36    1
    39     9    37    1
    40    10    38    1
    41    11    39    1
    42    12    40    1
    43    13    41    1
    44    17    42    1
    45    18    43    1
    46    21    44    1
    47    22    45    1
    48    23    46    1
    49    24    47    1
    50    25    48    1
    51    26    49    1
