REMARK  16 active torsions:
REMARK  status: ('A' for Active; 'I' for Inactive)
REMARK    1  A    between atoms: N_5  and  C_6 
REMARK    2  A    between atoms: N_5  and  C_9 
REMARK    3  A    between atoms: C_6  and  C_7 
REMARK    4  A    between atoms: C_7  and  O_8 
REMARK    5  A    between atoms: C_9  and  C_10 
REMARK    6  A    between atoms: C_10  and  O_11 
REMARK    7  A    between atoms: C_15  and  C_16 
REMARK    8  A    between atoms: C_15  and  C_25 
REMARK    9  A    between atoms: C_19  and  N_20 
REMARK   10  A    between atoms: C_28  and  N_29 
REMARK   11  A    between atoms: N_29  and  C_30 
REMARK   12  A    between atoms: N_29  and  C_33 
REMARK   13  A    between atoms: C_30  and  C_31 
REMARK   14  A    between atoms: C_31  and  O_32 
REMARK   15  A    between atoms: C_33  and  C_34 
REMARK   16  A    between atoms: C_34  and  O_35 
ROOT
ATOM      1  C   UNL d   1       0.960   0.240   0.101  0.00  0.00     0.049 C 
ATOM      2  C   UNL d   1       2.439   0.069   0.077  0.00  0.00    -0.049 C 
ATOM      3  C   UNL d   1       3.145   1.207  -0.021  0.00  0.00     0.037 C 
ATOM      4  C   UNL d   1       4.634   1.207  -0.093  0.00  0.00     0.030 C 
ATOM      5  N   UNL d   1       5.324   2.277   0.197  0.00  0.00    -0.377 N 
ATOM      6  C   UNL d   1       5.172  -0.106  -0.541  0.00  0.00     0.030 C 
ATOM      7  C   UNL d   1       4.474  -1.226  -0.437  0.00  0.00     0.015 C 
ATOM      8  C   UNL d   1       3.140  -1.231   0.126  0.00  0.00    -0.018 C 
ATOM      9  C   UNL d   1       2.676  -2.424   0.583  0.00  0.00    -0.004 C 
ENDROOT
BRANCH   9  10
ATOM     10  C   UNL d   1       1.252  -2.647   0.916  0.00  0.00    -0.024 C 
ATOM     11  C   UNL d   1       0.859  -3.034   2.199  0.00  0.00     0.015 C 
ATOM     12  C   UNL d   1      -0.496  -3.216   2.474  0.00  0.00     0.037 C 
ATOM     13  C   UNL d   1      -1.449  -2.883   1.502  0.00  0.00     0.102 C 
ATOM     14  C   UNL d   1      -1.059  -2.522   0.210  0.00  0.00     0.037 C 
ATOM     15  C   UNL d   1       0.294  -2.522  -0.101  0.00  0.00     0.015 C 
BRANCH  13  16
ATOM     16  N   UNL d   1      -2.875  -2.876   1.835  0.00  0.00    -0.116 N 
ATOM     17  O   UNL d   1      -3.194  -3.270   2.974  0.00  0.00    -0.532 OA
ATOM     18  O   UNL d   1      -3.663  -2.459   0.987  0.00  0.00    -0.532 OA
ENDBRANCH  13  16
ENDBRANCH   9  10
BRANCH   9  19
ATOM     19  C   UNL d   1       3.594  -3.592   0.693  0.00  0.00    -0.018 C 
ATOM     20  C   UNL d   1       3.227  -4.680  -0.053  0.00  0.00     0.015 C 
ATOM     21  C   UNL d   1       3.870  -5.881   0.164  0.00  0.00     0.030 C 
ATOM     22  C   UNL d   1       5.033  -6.080   0.919  0.00  0.00     0.030 C 
ATOM     23  C   UNL d   1       5.421  -4.931   1.623  0.00  0.00     0.037 C 
ATOM     24  C   UNL d   1       4.712  -3.704   1.541  0.00  0.00    -0.049 C 
ATOM     25  C   UNL d   1       5.191  -2.538   2.352  0.00  0.00     0.049 C 
BRANCH  22  26
ATOM     26  N   UNL d   1       5.734  -7.286   0.982  0.00  0.00    -0.377 N 
BRANCH  26  27
ATOM     27  C   UNL d   1       5.421  -8.523   0.207  0.00  0.00     0.149 C 
BRANCH  27  28
ATOM     28  C   UNL d   1       4.166  -8.556  -0.641  0.00  0.00     0.183 C 
BRANCH  28  29
ATOM     29  O   UNL d   1       3.954  -9.764  -1.344  0.00  0.00    -0.399 OA
ATOM     30  H   UNL d   1       4.569  -9.757  -2.094  0.00  0.00     0.209 HD
ENDBRANCH  28  29
ENDBRANCH  27  28
ENDBRANCH  26  27
BRANCH  26  31
ATOM     31  C   UNL d   1       7.001  -7.342   1.778  0.00  0.00     0.149 C 
BRANCH  31  32
ATOM     32  C   UNL d   1       7.766  -8.681   1.722  0.00  0.00     0.183 C 
BRANCH  32  33
ATOM     33  O   UNL d   1       8.934  -8.658   2.535  0.00  0.00    -0.399 OA
ATOM     34  H   UNL d   1       9.556  -8.021   2.147  0.00  0.00     0.209 HD
ENDBRANCH  32  33
ENDBRANCH  31  32
ENDBRANCH  26  31
ENDBRANCH  22  26
ENDBRANCH   9  19
BRANCH   5  35
ATOM     35  C   UNL d   1       6.834   2.393   0.255  0.00  0.00     0.149 C 
BRANCH  35  36
ATOM     36  C   UNL d   1       7.610   1.145  -0.070  0.00  0.00     0.183 C 
BRANCH  36  37
ATOM     37  O   UNL d   1       9.000   1.325   0.039  0.00  0.00    -0.399 OA
ATOM     38  H   UNL d   1       9.321   1.655  -0.820  0.00  0.00     0.209 HD
ENDBRANCH  36  37
ENDBRANCH  35  36
ENDBRANCH   5  35
BRANCH   5  39
ATOM     39  C   UNL d   1       4.569   3.563   0.554  0.00  0.00     0.149 C 
BRANCH  39  40
ATOM     40  C   UNL d   1       5.455   4.768   0.828  0.00  0.00     0.183 C 
BRANCH  40  41
ATOM     41  O   UNL d   1       4.657   5.897   1.136  0.00  0.00    -0.399 OA
ATOM     42  H   UNL d   1       4.181   6.194   0.340  0.00  0.00     0.209 HD
ENDBRANCH  40  41
ENDBRANCH  39  40
ENDBRANCH   5  39
TORSDOF 16
