@<TRIPOS>MOLECULE
*****
 58 60 0 0 0
SMALL
GASTEIGER

@<TRIPOS>ATOM
      1 C           1.0948    0.0477    0.0234 C.3     1  UNL1       -0.0570
      2 C           2.6217    0.1080    0.0712 C.3     1  UNL1        0.0215
      3 C           3.0528    1.1338    1.1036 C.2     1  UNL1        0.2169
      4 O           2.2095    1.7367    1.7680 O.2     1  UNL1       -0.2755
      5 N           4.4222    1.3400    1.2115 N.am    1  UNL1       -0.2854
      6 C           4.9919    2.1360    2.2361 C.ar    1  UNL1        0.0351
      7 C           6.1912    2.8186    2.0529 C.ar    1  UNL1       -0.0404
      8 C           6.7799    3.4812    3.1389 C.ar    1  UNL1       -0.0583
      9 C           6.1592    3.4792    4.3976 C.ar    1  UNL1       -0.0407
     10 C           4.9569    2.7997    4.5979 C.ar    1  UNL1        0.0293
     11 N           4.3536    2.7444    5.8354 N.pl3   1  UNL1       -0.3353
     12 C           3.1360    1.9640    6.0978 C.3     1  UNL1        0.0861
     13 C           2.7850    2.0310    7.5853 C.2     1  UNL1        0.2343
     14 O           3.5041    2.6672    8.3608 O.2     1  UNL1       -0.2738
     15 N           1.6626    1.2972    7.9751 N.am    1  UNL1       -0.2842
     16 C           1.1601    1.3530    9.2955 C.ar    1  UNL1        0.0335
     17 C           0.5957    0.2430    9.9329 C.ar    1  UNL1       -0.0387
     18 C           0.0831    0.3573   11.2516 C.ar    1  UNL1       -0.0387
     19 C           0.1522    1.5761   11.9454 C.ar    1  UNL1        0.0338
     20 N          -0.2654    1.6792   13.3056 N.am    1  UNL1       -0.2815
     21 C          -0.1969    2.8441   14.0637 C.2     1  UNL1        0.2483
     22 O           0.1910    3.9548   13.6809 O.2     1  UNL1       -0.2699
     23 C          -0.6076    2.8068   15.4822 C.ar    1  UNL1        0.0373
     24 C          -1.2775    3.9304   15.9966 C.ar    1  UNL1       -0.0496
     25 C          -1.4785    4.0682   17.3676 C.ar    1  UNL1       -0.0608
     26 C          -1.0595    3.0580   18.2284 C.ar    1  UNL1       -0.0588
     27 C          -0.3879    1.9327   17.7282 C.ar    1  UNL1       -0.0497
     28 C           0.1498    0.8947   18.6657 C.3     1  UNL1       -0.0397
     29 C          -0.1575    1.8101   16.3479 C.ar    1  UNL1       -0.0467
     30 C           0.6750    2.6712   11.2618 C.ar    1  UNL1       -0.0387
     31 C           1.1791    2.5629    9.9719 C.ar    1  UNL1       -0.0387
     32 C           4.3904    2.1633    3.4948 C.ar    1  UNL1       -0.0196
     33 H           0.7419   -0.6718   -0.7190 H       1  UNL1        0.0234
     34 H           0.6770    1.0304   -0.2269 H       1  UNL1        0.0234
     35 H           0.6840   -0.2391    0.9995 H       1  UNL1        0.0234
     36 H           3.0105    0.3906   -0.9115 H       1  UNL1        0.0356
     37 H           3.0175   -0.8768    0.3424 H       1  UNL1        0.0356
     38 H           5.0554    0.9310    0.5366 H       1  UNL1        0.1548
     39 H           6.6530    2.8951    1.0731 H       1  UNL1        0.0636
     40 H           7.7320    3.9932    3.0151 H       1  UNL1        0.0619
     41 H           6.6316    4.0094    5.2220 H       1  UNL1        0.0636
     42 H           4.8015    3.1551    6.6524 H       1  UNL1        0.1466
     43 H           3.2926    0.9113    5.8334 H       1  UNL1        0.0557
     44 H           2.3010    2.3753    5.5202 H       1  UNL1        0.0557
     45 H           1.2282    0.6497    7.3293 H       1  UNL1        0.1549
     46 H           0.6149   -0.7348    9.4564 H       1  UNL1        0.0637
     47 H          -0.3572   -0.5233   11.7145 H       1  UNL1        0.0637
     48 H          -0.6128    0.8371   13.7490 H       1  UNL1        0.1551
     49 H          -1.6036    4.7243   15.3259 H       1  UNL1        0.0625
     50 H          -1.9271    4.9752   17.7659 H       1  UNL1        0.0618
     51 H          -1.2392    3.1666   19.2963 H       1  UNL1        0.0620
     52 H          -0.1052    1.1233   19.7055 H       1  UNL1        0.0278
     53 H           1.2412    0.8558   18.5881 H       1  UNL1        0.0278
     54 H          -0.2706   -0.0838   18.4177 H       1  UNL1        0.0278
     55 H           0.4328    0.9801   15.9711 H       1  UNL1        0.0628
     56 H           0.7241    3.6628   11.6892 H       1  UNL1        0.0637
     57 H           1.5676    3.4659    9.5094 H       1  UNL1        0.0637
     58 H           3.4689    1.6145    3.6371 H       1  UNL1        0.0655
@<TRIPOS>BOND
     1     1     2    1
     2     2     3    1
     3     3     4    2
     4     3     5   am
     5     5     6    1
     6     6     7   ar
     7     7     8   ar
     8     8     9   ar
     9     9    10   ar
    10    10    11    1
    11    11    12    1
    12    12    13    1
    13    13    14    2
    14    13    15   am
    15    15    16    1
    16    16    17   ar
    17    17    18   ar
    18    18    19   ar
    19    19    20    1
    20    20    21   am
    21    21    22    2
    22    21    23    1
    23    23    24   ar
    24    24    25   ar
    25    25    26   ar
    26    26    27   ar
    27    27    28    1
    28    27    29   ar
    29    23    29   ar
    30    19    30   ar
    31    30    31   ar
    32    16    31   ar
    33    10    32   ar
    34     6    32   ar
    35     1    33    1
    36     1    34    1
    37     1    35    1
    38     2    36    1
    39     2    37    1
    40     5    38    1
    41     7    39    1
    42     8    40    1
    43     9    41    1
    44    11    42    1
    45    12    43    1
    46    12    44    1
    47    15    45    1
    48    17    46    1
    49    18    47    1
    50    20    48    1
    51    24    49    1
    52    25    50    1
    53    26    51    1
    54    28    52    1
    55    28    53    1
    56    28    54    1
    57    29    55    1
    58    30    56    1
    59    31    57    1
    60    32    58    1
