@<TRIPOS>MOLECULE
*****
 41 42 0 0 0
SMALL
GASTEIGER

@<TRIPOS>ATOM
      1 O           1.0299   -0.0080    0.0651 O.2     1  UNL1       -0.2513
      2 C           2.2574   -0.0484    0.0575 C.2     1  UNL1        0.3160
      3 N           2.9376   -1.1402   -0.4266 N.am    1  UNL1       -0.2982
      4 C           2.2306   -2.3043   -0.9509 C.3     1  UNL1        0.0147
      5 C           3.1916   -3.3864   -1.4414 C.3     1  UNL1       -0.0191
      6 C           2.4617   -4.6077   -2.0003 C.3     1  UNL1        0.0296
      7 N           3.3876   -5.6677   -2.4564 N.ar    1  UNL1       -0.2957
      8 C           3.1365   -7.0379   -2.3863 C.ar    1  UNL1        0.0732
      9 C           4.2149   -7.6719   -2.9373 C.ar    1  UNL1        0.1870
     10 N           5.0831   -6.6826   -3.3282 N.ar    1  UNL1       -0.2011
     11 C           4.5781   -5.4773   -3.0511 C.ar    1  UNL1        0.2463
     12 N           3.0138    1.0018    0.5313 N.am    1  UNL1       -0.2180
     13 N           4.4206    1.0541    0.6221 N.am    1  UNL1       -0.2291
     14 C           5.0506    2.2026    1.0982 C.2     1  UNL1        0.2616
     15 O           4.4506    3.1648    1.5733 O.2     1  UNL1       -0.2686
     16 C           6.5539    2.2070    1.0544 C.ar    1  UNL1        0.0568
     17 C           7.2690    2.6735    2.1783 C.ar    1  UNL1       -0.0418
     18 C           8.6781    2.6619    2.2005 C.ar    1  UNL1        0.0164
     19 C           9.3841    2.1977    1.0849 C.ar    1  UNL1        0.2746
     20 N          10.8572    2.1509    1.0962 N.pl3   1  UNL1        0.0796
     21 O          11.4390    2.5277    2.1211 O.2     1  UNL1        0.0414
     22 O          11.4211    1.7141    0.0826 O.co2   1  UNL1       -0.5760
     23 C           8.6889    1.7652   -0.0506 C.ar    1  UNL1        0.0346
     24 C           7.2841    1.7785   -0.0660 C.ar    1  UNL1        0.0595
     25 CL          6.5257    1.2705   -1.5352 Cl      1  UNL1       -0.0825
     26 H           3.9391   -1.1186   -0.4258 H       1  UNL1        0.1503
     27 H           1.5840   -1.9725   -1.7726 H       1  UNL1        0.0463
     28 H           1.5812   -2.6985   -0.1605 H       1  UNL1        0.0463
     29 H           3.8498   -3.7030   -0.6234 H       1  UNL1        0.0297
     30 H           3.8396   -2.9588   -2.2148 H       1  UNL1        0.0297
     31 H           1.8341   -4.3359   -2.8568 H       1  UNL1        0.0494
     32 H           1.8125   -5.0414   -1.2300 H       1  UNL1        0.0494
     33 H           2.2152   -7.3885   -1.9519 H       1  UNL1        0.0871
     34 H           4.4816   -8.7005   -3.1073 H       1  UNL1        0.1392
     35 H           5.9842   -6.8338   -3.7771 H       1  UNL1        0.4538
     36 H           5.0586   -4.5307   -3.2659 H       1  UNL1        0.1600
     37 H           2.5033    1.8104    0.8932 H       1  UNL1        0.1744
     38 H           4.9613    0.3301    0.1769 H       1  UNL1        0.1732
     39 H           6.7360    3.0459    3.0545 H       1  UNL1        0.0628
     40 H           9.2062    3.0150    3.0877 H       1  UNL1        0.0685
     41 H           9.2324    1.4227   -0.9302 H       1  UNL1        0.0700
@<TRIPOS>UNITY_ATOM_ATTR
10 1
charge 1
20 1
charge 1
22 1
charge -1
@<TRIPOS>BOND
     1     1     2    2
     2     2     3   am
     3     3     4    1
     4     4     5    1
     5     5     6    1
     6     6     7    1
     7     7     8   ar
     8     8     9   ar
     9     9    10   ar
    10    10    11   ar
    11     7    11   ar
    12     2    12   am
    13    12    13    1
    14    13    14   am
    15    14    15    2
    16    14    16    1
    17    16    17   ar
    18    17    18   ar
    19    18    19   ar
    20    19    20    1
    21    20    21    2
    22    20    22    1
    23    19    23   ar
    24    23    24   ar
    25    16    24   ar
    26    24    25    1
    27     3    26    1
    28     4    27    1
    29     4    28    1
    30     5    29    1
    31     5    30    1
    32     6    31    1
    33     6    32    1
    34     8    33    1
    35     9    34    1
    36    10    35    1
    37    11    36    1
    38    12    37    1
    39    13    38    1
    40    17    39    1
    41    18    40    1
    42    23    41    1
