@<TRIPOS>MOLECULE
*****
 43 46 0 0 0
SMALL
GASTEIGER

@<TRIPOS>ATOM
      1 O           0.9625    0.0883    0.0396 O.2     1  UNL1        0.0417
      2 N           2.1929    0.1000    0.0314 N.pl3   1  UNL1        0.0880
      3 O           2.9105    0.7408   -0.7506 O.co2   1  UNL1       -0.5758
      4 C           2.8524   -0.7186    1.0185 C.ar    1  UNL1        0.3595
      5 C           2.4383   -2.0548    1.1466 C.ar    1  UNL1        0.0296
      6 C           3.0249   -2.8622    2.1172 C.ar    1  UNL1        0.0086
      7 C           4.0140   -2.3224    2.9228 C.ar    1  UNL1        0.1715
      8 N           4.3971   -1.0541    2.7390 N.ar    1  UNL1       -0.1925
      9 C           3.8737   -0.2115    1.8230 C.ar    1  UNL1        0.3505
     10 N           4.5336    0.9837    1.8138 N.pl3   1  UNL1       -0.2723
     11 C           5.7724    0.9363    1.0138 C.3     1  UNL1        0.0181
     12 C           6.7774    1.8704    1.6752 C.3     1  UNL1       -0.0287
     13 C           6.2341    3.3110    1.7772 C.3     1  UNL1        0.0059
     14 C           6.1916    3.9734    0.4193 C.ar    1  UNL1        0.0667
     15 C           5.4027    3.6020   -0.6853 C.ar    1  UNL1       -0.0101
     16 C           5.7203    4.4552   -1.6994 C.ar    1  UNL1        0.1010
     17 C           5.1340    4.4690   -2.9896 C.ar    1  UNL1        0.1523
     18 C           3.7788    4.5185   -3.2705 C.ar    1  UNL1       -0.0144
     19 C           3.6403    4.3907   -4.6683 C.ar    1  UNL1       -0.0233
     20 C           4.9137    4.2270   -5.1574 C.ar    1  UNL1        0.0926
     21 O           5.8261    4.2819   -4.1505 O.2     1  UNL1       -0.4614
     22 N           6.6663    5.2904   -1.1895 N.ar    1  UNL1       -0.2737
     23 N           6.9654    5.0235    0.1117 N.ar    1  UNL1       -0.1780
     24 C           4.8467    3.3078    2.4683 C.3     1  UNL1       -0.0287
     25 C           3.8677    2.3028    1.8312 C.3     1  UNL1        0.0181
     26 H           1.6680   -2.4704    0.4958 H       1  UNL1        0.0690
     27 H           2.7087   -3.8953    2.2493 H       1  UNL1        0.0679
     28 H           4.5155   -2.8774    3.7091 H       1  UNL1        0.1376
     29 H           5.1357   -0.6526    3.3158 H       1  UNL1        0.4544
     30 H           5.5840    1.1845   -0.0317 H       1  UNL1        0.0466
     31 H           6.1935   -0.0758    0.9789 H       1  UNL1        0.0466
     32 H           7.7270    1.8425    1.1305 H       1  UNL1        0.0287
     33 H           6.9735    1.4883    2.6870 H       1  UNL1        0.0287
     34 H           6.9254    3.8748    2.4213 H       1  UNL1        0.0365
     35 H           4.6838    2.8108   -0.8046 H       1  UNL1        0.0658
     36 H           2.9888    4.6294   -2.5395 H       1  UNL1        0.0656
     37 H           2.7247    4.4033   -5.2425 H       1  UNL1        0.0649
     38 H           5.3158    4.0719   -6.1486 H       1  UNL1        0.1029
     39 H           7.1164    6.0758   -1.6478 H       1  UNL1        0.1890
     40 H           4.4195    4.3183    2.4702 H       1  UNL1        0.0287
     41 H           4.9791    3.0209    3.5211 H       1  UNL1        0.0287
     42 H           3.5759    2.6404    0.8360 H       1  UNL1        0.0466
     43 H           2.9359    2.2806    2.4069 H       1  UNL1        0.0466
@<TRIPOS>UNITY_ATOM_ATTR
2 1
charge 1
3 1
charge -1
8 1
charge 1
@<TRIPOS>BOND
     1     1     2    2
     2     2     3    1
     3     2     4    1
     4     4     5   ar
     5     5     6   ar
     6     6     7   ar
     7     7     8   ar
     8     8     9   ar
     9     4     9   ar
    10     9    10    1
    11    10    11    1
    12    11    12    1
    13    12    13    1
    14    13    14    1
    15    14    15   ar
    16    15    16   ar
    17    16    17    1
    18    17    18   ar
    19    18    19   ar
    20    19    20   ar
    21    20    21   ar
    22    17    21   ar
    23    16    22   ar
    24    22    23   ar
    25    14    23   ar
    26    13    24    1
    27    24    25    1
    28    10    25    1
    29     5    26    1
    30     6    27    1
    31     7    28    1
    32     8    29    1
    33    11    30    1
    34    11    31    1
    35    12    32    1
    36    12    33    1
    37    13    34    1
    38    15    35    1
    39    18    36    1
    40    19    37    1
    41    20    38    1
    42    22    39    1
    43    24    40    1
    44    24    41    1
    45    25    42    1
    46    25    43    1
