@<TRIPOS>MOLECULE
*****
 37 38 0 0 0
SMALL
GASTEIGER

@<TRIPOS>ATOM
      1 C          14.7691    0.0221  -10.4663 C.3     1  UNL1       -0.0307
      2 C          14.6948   -1.4917  -10.5720 C.3     1  UNL1        0.0870
      3 O          13.9066   -1.9938   -9.4867 O.3     1  UNL1       -0.4885
      4 C          13.7595   -3.3591   -9.4389 C.ar    1  UNL1        0.1634
      5 C          12.4689   -3.8193   -9.1208 C.ar    1  UNL1       -0.0076
      6 C          12.1969   -5.1916   -8.9924 C.ar    1  UNL1       -0.0007
      7 C          10.8195   -5.6680   -8.6572 C.2     1  UNL1        0.0529
      8 N           9.8465   -4.8302   -8.4821 N.2     1  UNL1       -0.1877
      9 N           8.6100   -5.3252   -8.1550 N.am    1  UNL1       -0.2049
     10 C           7.5588   -4.4393   -7.9323 C.2     1  UNL1        0.2625
     11 O           7.6461   -3.2133   -8.0773 O.2     1  UNL1       -0.2713
     12 C           6.2233   -5.0667   -7.5129 C.3     1  UNL1        0.1690
     13 C           5.2158   -4.9531   -8.5940 C.2     1  UNL1       -0.0265
     14 C           4.9000   -6.2047   -8.9203 C.2     1  UNL1        0.0587
     15 C           3.9459   -6.6196   -9.9808 C.3     1  UNL1       -0.0208
     16 N           5.5767   -7.1305   -8.1652 N.2     1  UNL1       -0.1585
     17 N           6.3495   -6.5449   -7.3505 N.2     1  UNL1       -0.1703
     18 C          13.2328   -6.1146   -9.1744 C.ar    1  UNL1       -0.0353
     19 C          14.5239   -5.6556   -9.4716 C.ar    1  UNL1        0.0635
     20 BR         15.9196   -6.9237   -9.7089 Br      1  UNL1       -0.0464
     21 C          14.7962   -4.2860   -9.5888 C.ar    1  UNL1        0.1727
     22 O          16.0786   -3.8550   -9.8044 O.3     1  UNL1       -0.5026
     23 H          15.3705    0.4335  -11.2834 H       1  UNL1        0.0262
     24 H          15.2311    0.3154   -9.5171 H       1  UNL1        0.0262
     25 H          13.7721    0.4694  -10.4960 H       1  UNL1        0.0262
     26 H          15.7264   -1.8420  -10.5413 H       1  UNL1        0.0694
     27 H          14.2396   -1.7780  -11.5269 H       1  UNL1        0.0694
     28 H          11.6688   -3.0950   -8.9740 H       1  UNL1        0.0662
     29 H          10.6727   -6.7599   -8.5605 H       1  UNL1        0.0851
     30 H           8.4477   -6.3259   -8.0716 H       1  UNL1        0.1773
     31 H           5.8688   -4.6112   -6.5814 H       1  UNL1        0.0705
     32 H           4.8392   -4.0425   -9.0292 H       1  UNL1        0.0617
     33 H           3.5134   -5.7443  -10.4780 H       1  UNL1        0.0293
     34 H           3.1233   -7.2053   -9.5599 H       1  UNL1        0.0293
     35 H           4.4517   -7.2192  -10.7438 H       1  UNL1        0.0293
     36 H          13.0516   -7.1816   -9.0787 H       1  UNL1        0.0636
     37 H          16.6623   -4.6270   -9.9016 H       1  UNL1        0.2923
@<TRIPOS>BOND
     1     1     2    1
     2     2     3    1
     3     3     4    1
     4     4     5   ar
     5     5     6   ar
     6     6     7    1
     7     7     8    2
     8     8     9    1
     9     9    10   am
    10    10    11    2
    11    12    13    1
    12    13    14    2
    13    14    15    1
    14    14    16    1
    15    16    17    2
    16    12    17    1
    17     6    18   ar
    18    18    19   ar
    19    19    20    1
    20    19    21   ar
    21     4    21   ar
    22    21    22    1
    23    12    10    1
    24     1    23    1
    25     1    24    1
    26     1    25    1
    27     2    26    1
    28     2    27    1
    29     5    28    1
    30     7    29    1
    31     9    30    1
    32    12    31    1
    33    13    32    1
    34    15    33    1
    35    15    34    1
    36    15    35    1
    37    18    36    1
    38    22    37    1
