REMARK  6 active torsions:
REMARK  status: ('A' for Active; 'I' for Inactive)
REMARK    1  A    between atoms: C_2  and  C_4 
REMARK    2  A    between atoms: C_4  and  N_5 
REMARK    3  A    between atoms: C_4  and  C_9 
REMARK       I    between atoms: N_5  and  C_6 
REMARK       I    between atoms: C_6  and  N_7 
REMARK       I    between atoms: C_9  and  N_11 
REMARK    4  A    between atoms: N_11  and  C_12 
REMARK    5  A    between atoms: C_15  and  O_16 
REMARK    6  A    between atoms: O_16  and  C_17 
ROOT
ATOM      1  C   UNL d   1      11.668  -2.115  -0.705  0.00  0.00     0.076 A 
ATOM      2  C   UNL d   1      12.593  -1.097  -0.454  0.00  0.00     0.039 A 
ATOM      3  C   UNL d   1      13.410  -1.157   0.687  0.00  0.00     0.025 A 
ATOM      4  C   UNL d   1      13.229  -2.170   1.637  0.00  0.00     0.044 A 
ATOM      5  C   UNL d   1      13.949  -2.143   2.874  0.00  0.00     0.099 C 
ATOM      6  N   UNL d   1      14.507  -2.102   3.900  0.00  0.00    -0.191 NA
ATOM      7  C   UNL d   1      12.300  -3.183   1.385  0.00  0.00     0.025 A 
ATOM      8  C   UNL d   1      11.553  -3.172   0.203  0.00  0.00     0.039 A 
ENDROOT
BRANCH   1   9
ATOM      9  O   UNL d   1      10.963  -2.107  -1.895  0.00  0.00    -0.311 OA
BRANCH   9  10
ATOM     10  C   UNL d   1       9.579  -2.132  -1.864  0.00  0.00     0.076 A 
ATOM     11  C   UNL d   1       8.898  -2.161  -3.091  0.00  0.00     0.039 A 
ATOM     12  C   UNL d   1       7.491  -2.021  -3.141  0.00  0.00     0.032 A 
ATOM     13  C   UNL d   1       6.750  -1.931  -1.960  0.00  0.00     0.035 A 
ATOM     14  C   UNL d   1       7.438  -1.958  -0.745  0.00  0.00     0.032 A 
ATOM     15  C   UNL d   1       8.827  -2.050  -0.697  0.00  0.00     0.039 A 
BRANCH  13  16
ATOM     16  N   UNL d   1       5.327  -1.854  -1.967  0.00  0.00    -0.325 N 
ATOM     17  C   UNL d   1       4.657  -0.995  -1.105  0.00  0.00     0.245 C 
ATOM     18  O   UNL d   1       5.283  -0.212  -0.385  0.00  0.00    -0.271 OA
ATOM     19  H   UNL d   1       4.822  -2.331  -2.702  0.00  0.00     0.169 HD
BRANCH  17  20
ATOM     20  C   UNL d   1       3.078  -1.054  -1.047  0.00  0.00     0.182 C 
BRANCH  20  21
ATOM     21  C   UNL d   1       2.623  -0.035   0.069  0.00  0.00     0.009 C 
ATOM     22  C   UNL d   1       1.119   0.138   0.248  0.00  0.00     0.012 C 
ATOM     23  C   UNL d   1       3.123  -0.467   1.456  0.00  0.00     0.012 C 
ENDBRANCH  20  21
BRANCH  20  24
ATOM     24  N   UNL d   1       2.488  -0.782  -2.378  0.00  0.00    -0.330 N 
ATOM     25  C   UNL d   1       1.190  -0.732  -2.780  0.00  0.00     0.314 C 
ATOM     26  N   UNL d   1       0.254  -1.300  -1.994  0.00  0.00    -0.352 N 
ATOM     27  O   UNL d   1       0.868  -0.173  -3.821  0.00  0.00    -0.248 OA
ATOM     28  H   UNL d   1       0.490  -1.673  -1.093  0.00  0.00     0.160 HD
ATOM     29  H   UNL d   1      -0.675  -0.894  -2.058  0.00  0.00     0.160 HD
ATOM     30  H   UNL d   1       3.095  -0.347  -3.063  0.00  0.00     0.165 HD
ENDBRANCH  20  24
ENDBRANCH  17  20
ENDBRANCH  13  16
ENDBRANCH   9  10
ENDBRANCH   1   9
TORSDOF 6
