REMARK  11 active torsions:
REMARK  status: ('A' for Active; 'I' for Inactive)
REMARK    1  A    between atoms: O_2  and  C_3 
REMARK    2  A    between atoms: C_3  and  C_5 
REMARK    3  A    between atoms: C_10  and  N_11 
REMARK    4  A    between atoms: N_11  and  C_12 
REMARK    5  A    between atoms: C_12  and  N_14 
REMARK    6  A    between atoms: N_14  and  C_15 
REMARK    7  A    between atoms: N_14  and  C_18 
REMARK    8  A    between atoms: C_15  and  C_16 
REMARK    9  A    between atoms: C_16  and  O_17 
REMARK   10  A    between atoms: C_18  and  C_19 
REMARK   11  A    between atoms: C_30  and  O_31 
ROOT
ATOM      1  N   UNL d   1       2.559  -2.264   1.524  0.00  0.00    -0.352 N 
ENDROOT
BRANCH   1   2
ATOM      2  C   UNL d   1       3.186  -2.047   0.257  0.00  0.00     0.174 C 
ATOM      3  S   UNL d   1       2.596  -2.700  -1.176  0.00  0.00    -0.041 SA
BRANCH   2   4
ATOM      4  N   UNL d   1       4.452  -1.444   0.365  0.00  0.00    -0.332 N 
ATOM      5  H   UNL d   1       5.137  -1.983   0.845  0.00  0.00     0.168 HD
BRANCH   4   6
ATOM      6  C   UNL d   1       5.169  -0.645  -0.547  0.00  0.00     0.050 A 
ATOM      7  C   UNL d   1       6.582  -0.839  -0.573  0.00  0.00     0.030 A 
ATOM      8  C   UNL d   1       7.385  -0.132  -1.462  0.00  0.00     0.002 A 
ATOM      9  C   UNL d   1       6.782   0.778  -2.320  0.00  0.00     0.001 A 
ATOM     10  C   UNL d   1       5.399   1.021  -2.246  0.00  0.00     0.020 A 
ATOM     11  C   UNL d   1       4.578   0.321  -1.353  0.00  0.00     0.066 A 
BRANCH  11  12
ATOM     12  C   UNL d   1       3.106   0.556  -1.414  0.00  0.00     0.295 C 
ATOM     13  O   UNL d   1       2.518   0.606  -2.474  0.00  0.00    -0.259 OA
BRANCH  12  14
ATOM     14  O   UNL d   1       2.529   0.650  -0.179  0.00  0.00    -0.322 OA
ATOM     15  C   UNL d   1       1.097   0.518  -0.181  0.00  0.00     0.213 C 
ENDBRANCH  12  14
ENDBRANCH  11  12
ENDBRANCH   4   6
ENDBRANCH   2   4
ENDBRANCH   1   2
BRANCH   1  16
ATOM     16  C   UNL d   1       3.261  -3.136   2.434  0.00  0.00     0.151 C 
BRANCH  16  17
ATOM     17  C   UNL d   1       4.764  -3.344   2.354  0.00  0.00     0.183 C 
BRANCH  17  18
ATOM     18  O   UNL d   1       5.204  -4.296   3.299  0.00  0.00    -0.399 OA
ATOM     19  H   UNL d   1       5.250  -3.832   4.153  0.00  0.00     0.209 HD
ENDBRANCH  17  18
ENDBRANCH  16  17
ENDBRANCH   1  16
BRANCH   1  20
ATOM     20  C   UNL d   1       1.042  -2.188   1.728  0.00  0.00     0.164 C 
BRANCH  20  21
ATOM     21  C   UNL d   1       0.264  -3.071   2.729  0.00  0.00    -0.004 C 
ATOM     22  C   UNL d   1      -0.947  -3.660   2.429  0.00  0.00     0.046 C 
ATOM     23  C   UNL d   1      -1.505  -4.536   3.433  0.00  0.00     0.035 C 
ATOM     24  C   UNL d   1      -0.800  -5.608   4.083  0.00  0.00    -0.012 C 
ATOM     25  C   UNL d   1      -2.091  -3.881   4.430  0.00  0.00     0.125 C 
ATOM     26  C   UNL d   1      -1.299  -6.301   5.192  0.00  0.00     0.004 C 
ATOM     27  C   UNL d   1      -2.554  -5.981   5.637  0.00  0.00    -0.058 C 
ATOM     28  C   UNL d   1      -3.246  -6.967   6.530  0.00  0.00     0.048 C 
ATOM     29  C   UNL d   1      -3.059  -4.767   5.139  0.00  0.00    -0.044 C 
ATOM     30  C   UNL d   1      -4.597  -4.717   5.066  0.00  0.00     0.047 C 
ATOM     31  N   UNL d   1      -0.991  -3.091   4.892  0.00  0.00    -0.247 NA
ATOM     32  C   UNL d   1       0.226  -2.903   4.105  0.00  0.00     0.163 C 
BRANCH  32  33
ATOM     33  O   UNL d   1       1.364  -3.447   4.734  0.00  0.00    -0.345 OA
ATOM     34  H   UNL d   1       1.781  -4.062   4.095  0.00  0.00     0.219 HD
ENDBRANCH  32  33
ENDBRANCH  20  21
ENDBRANCH   1  20
TORSDOF 11
