REMARK  3 active torsions:
REMARK  status: ('A' for Active; 'I' for Inactive)
REMARK    1  A    between atoms: C_5  and  C_6 
REMARK       I    between atoms: C_6  and  N_7 
REMARK    2  A    between atoms: C_10  and  N_11 
REMARK       I    between atoms: N_11  and  C_12 
REMARK    3  A    between atoms: C_12  and  C_14 
ROOT
ATOM      1  C   UNL d   1       2.445  -0.359   0.465  0.00  0.00     0.050 C 
ATOM      2  C   UNL d   1       0.990  -0.113   0.187  0.00  0.00    -0.035 C 
ATOM      3  C   UNL d   1       0.225  -1.277   0.080  0.00  0.00     0.010 C 
ATOM      4  C   UNL d   1      -1.156  -1.232  -0.005  0.00  0.00     0.017 C 
ATOM      5  C   UNL d   1      -1.821  -0.009  -0.008  0.00  0.00     0.034 C 
ATOM      6  C   UNL d   1      -1.060   1.183   0.005  0.00  0.00     0.047 C 
ATOM      7  C   UNL d   1       0.358   1.143   0.043  0.00  0.00     0.042 C 
ENDROOT
BRANCH   7   8
ATOM      8  N   UNL d   1       1.062   2.379  -0.079  0.00  0.00    -0.322 N 
ATOM      9  C   UNL d   1       2.432   2.581  -0.202  0.00  0.00     0.256 C 
ATOM     10  O   UNL d   1       3.012   3.366   0.545  0.00  0.00    -0.267 OA
ATOM     11  H   UNL d   1       0.553   3.215   0.196  0.00  0.00     0.169 HD
BRANCH   9  12
ATOM     12  C   UNL d   1       3.212   1.859  -1.279  0.00  0.00     0.034 A 
ATOM     13  C   UNL d   1       4.607   1.716  -1.123  0.00  0.00     0.019 A 
ATOM     14  C   UNL d   1       5.317   0.786  -1.903  0.00  0.00     0.026 A 
ATOM     15  C   UNL d   1       4.644  -0.034  -2.816  0.00  0.00     0.055 A 
ATOM     16 CL   UNL d   1       5.561  -1.204  -3.695  0.00  0.00    -0.083 Cl
ATOM     17  C   UNL d   1       3.259   0.090  -2.964  0.00  0.00     0.056 A 
ATOM     18 CL   UNL d   1       2.318  -1.096  -3.807  0.00  0.00    -0.083 Cl
ATOM     19  C   UNL d   1       2.560   1.082  -2.259  0.00  0.00     0.042 A 
ENDBRANCH   9  12
ENDBRANCH   7   8
BRANCH   5  20
ATOM     20  C   UNL d   1      -3.321   0.040  -0.046  0.00  0.00     0.249 C 
ATOM     21  N   UNL d   1      -4.006  -1.156  -0.061  0.00  0.00    -0.366 N 
ATOM     22  H   UNL d   1      -3.595  -2.075  -0.050  0.00  0.00     0.159 HD
ATOM     23  H   UNL d   1      -5.017  -1.115  -0.082  0.00  0.00     0.159 HD
ATOM     24  O   UNL d   1      -3.926   1.093  -0.059  0.00  0.00    -0.268 OA
ENDBRANCH   5  20
TORSDOF 3
