@<TRIPOS>MOLECULE
*****
 56 59 0 0 0
SMALL
GASTEIGER

@<TRIPOS>ATOM
      1 C           0.9448   -0.0355    0.2058 C.3     1  UNL1        0.0789
      2 O           2.3475   -0.2972    0.3041 O.3     1  UNL1       -0.4933
      3 C           3.0010    0.4142    1.2652 C.ar    1  UNL1        0.1412
      4 C           2.6319    0.1197    2.5744 C.ar    1  UNL1       -0.0179
      5 C           3.3765    0.5877    3.6403 C.ar    1  UNL1       -0.0553
      6 C           4.5093    1.3703    3.4175 C.ar    1  UNL1       -0.0485
      7 C           5.2909    1.8358    4.6160 C.3     1  UNL1       -0.0396
      8 C           4.8763    1.6960    2.0905 C.ar    1  UNL1       -0.0340
      9 C           4.1230    1.2228    0.9855 C.ar    1  UNL1        0.0761
     10 N           4.5477    1.6088   -0.3376 N.am    1  UNL1       -0.2783
     11 C           3.8823    1.3068   -1.5142 C.2     1  UNL1        0.2582
     12 O           2.8882    0.6103   -1.6956 O.2     1  UNL1       -0.2695
     13 C           4.4612    1.8015   -2.7745 C.ar    1  UNL1        0.1490
     14 C           3.5478    2.0981   -3.7127 C.ar    1  UNL1       -0.0287
     15 C           3.9122    2.3412   -5.0969 C.ar    1  UNL1        0.0271
     16 C           2.9630    2.6750   -6.0774 C.ar    1  UNL1        0.0066
     17 C           1.4912    2.7856   -5.7632 C.3     1  UNL1        0.0713
     18 O           0.7079    3.1764   -6.8779 O.3     1  UNL1       -0.3903
     19 C           3.4557    2.8987   -7.3573 C.ar    1  UNL1        0.0340
     20 N           4.7645    2.8132   -7.6997 N.ar    1  UNL1       -0.2561
     21 C           5.6569    2.4654   -6.7453 C.ar    1  UNL1        0.0811
     22 C           7.0900    2.3615   -7.1653 C.3     1  UNL1       -0.0188
     23 C           5.2610    2.2283   -5.4358 C.ar    1  UNL1        0.1629
     24 O           6.2283    1.8892   -4.4581 O.2     1  UNL1       -0.4015
     25 C           5.8488    1.6284   -3.1500 C.ar    1  UNL1        0.3880
     26 N           6.7245    1.0589   -2.4030 N.2     1  UNL1       -0.1722
     27 C           8.0850    1.0358   -2.6909 C.ar    1  UNL1        0.2090
     28 C           8.7079   -0.2069   -2.6215 C.ar    1  UNL1        0.0098
     29 C           9.9234   -0.3517   -3.2759 C.ar    1  UNL1       -0.0555
     30 C          10.6394    0.7788   -3.6704 C.ar    1  UNL1       -0.0613
     31 C          10.0859    2.0501   -3.5336 C.ar    1  UNL1       -0.0555
     32 C           8.7603    2.1732   -3.1408 C.ar    1  UNL1        0.0098
     33 H           0.6129   -0.3969   -0.7741 H       1  UNL1        0.0660
     34 H           0.7030    1.0330    0.2648 H       1  UNL1        0.0660
     35 H           0.4053   -0.6042    0.9650 H       1  UNL1        0.0660
     36 H           1.7863   -0.5340    2.7609 H       1  UNL1        0.0655
     37 H           3.0733    0.3017    4.6446 H       1  UNL1        0.0621
     38 H           4.8458    1.4546    5.5451 H       1  UNL1        0.0278
     39 H           5.2826    2.9270    4.6776 H       1  UNL1        0.0278
     40 H           6.3204    1.4685    4.5794 H       1  UNL1        0.0278
     41 H           5.7666    2.3092    1.9539 H       1  UNL1        0.0640
     42 H           5.2859    2.3051   -0.3367 H       1  UNL1        0.1552
     43 H           2.4865    2.0730   -3.4691 H       1  UNL1        0.0635
     44 H           1.3308    3.5228   -4.9681 H       1  UNL1        0.0608
     45 H           1.1093    1.8169   -5.4208 H       1  UNL1        0.0608
     46 H           0.9691    4.0791   -7.1272 H       1  UNL1        0.2098
     47 H           2.7989    3.1693   -8.1821 H       1  UNL1        0.0833
     48 H           7.2079    2.6163   -8.2238 H       1  UNL1        0.0294
     49 H           7.4555    1.3408   -7.0180 H       1  UNL1        0.0294
     50 H           7.7015    3.0542   -6.5798 H       1  UNL1        0.0294
     51 H           6.4577    0.6341   -1.5103 H       1  UNL1        0.4567
     52 H           8.2194   -1.0900   -2.2149 H       1  UNL1        0.0683
     53 H          10.3056   -1.3454   -3.5034 H       1  UNL1        0.0620
     54 H          11.6376    0.6645   -4.0881 H       1  UNL1        0.0618
     55 H          10.6727    2.9320   -3.7814 H       1  UNL1        0.0620
     56 H           8.2979    3.1579   -3.1502 H       1  UNL1        0.0683
@<TRIPOS>UNITY_ATOM_ATTR
26 1
charge 1
@<TRIPOS>BOND
     1     1     2    1
     2     2     3    1
     3     3     4   ar
     4     4     5   ar
     5     5     6   ar
     6     6     7    1
     7     6     8   ar
     8     8     9   ar
     9     3     9   ar
    10     9    10    1
    11    10    11   am
    12    11    12    2
    13    11    13    1
    14    13    14   ar
    15    14    15   ar
    16    15    16   ar
    17    16    17    1
    18    17    18    1
    19    16    19   ar
    20    19    20   ar
    21    20    21   ar
    22    21    22    1
    23    21    23   ar
    24    15    23   ar
    25    23    24   ar
    26    24    25   ar
    27    13    25   ar
    28    25    26    2
    29    26    27    1
    30    27    28   ar
    31    28    29   ar
    32    29    30   ar
    33    30    31   ar
    34    31    32   ar
    35    27    32   ar
    36     1    33    1
    37     1    34    1
    38     1    35    1
    39     4    36    1
    40     5    37    1
    41     7    38    1
    42     7    39    1
    43     7    40    1
    44     8    41    1
    45    10    42    1
    46    14    43    1
    47    17    44    1
    48    17    45    1
    49    18    46    1
    50    19    47    1
    51    22    48    1
    52    22    49    1
    53    22    50    1
    54    26    51    1
    55    28    52    1
    56    29    53    1
    57    30    54    1
    58    31    55    1
    59    32    56    1
