@<TRIPOS>MOLECULE
*****
 33 33 0 0 0
SMALL
GASTEIGER

@<TRIPOS>ATOM
      1 C           0.9326   -0.0363   -0.0594 C.3     1  UNL1       -0.0618
      2 C           2.4528   -0.0527   -0.0746 C.3     1  UNL1       -0.0369
      3 C           3.0842    0.9460    0.8565 C.2     1  UNL1       -0.0764
      4 C           4.4140    1.1360    1.0337 C.2     1  UNL1        0.0088
      5 C           4.8765    2.1828    2.0086 C.3     1  UNL1       -0.0350
      6 C           5.4273    0.3089    0.2581 C.2     1  UNL1        0.2556
      7 O           5.0935   -0.5571   -0.5528 O.2     1  UNL1       -0.2690
      8 N           6.7677    0.5537    0.4812 N.am    1  UNL1       -0.2304
      9 N           7.7177   -0.2082   -0.2668 N.am    1  UNL1       -0.2297
     10 C           9.0817   -0.0587   -0.0437 C.2     1  UNL1        0.2670
     11 O           9.4902    0.7685    0.7794 O.2     1  UNL1       -0.2681
     12 C           9.9581   -0.9372   -0.8265 C.ar    1  UNL1        0.0782
     13 S          11.2460   -1.7523   -0.0249 S.2     1  UNL1       -0.0918
     14 C          11.7442   -2.5509   -1.4522 C.ar    1  UNL1       -0.0233
     15 C          10.9924   -2.1642   -2.5358 C.ar    1  UNL1       -0.0511
     16 C           9.9677   -1.2157   -2.1913 C.ar    1  UNL1       -0.0312
     17 C           9.0696   -0.5974   -3.2067 C.3     1  UNL1       -0.0385
     18 H           0.5532   -0.7882   -0.7599 H       1  UNL1        0.0233
     19 H           0.5424    0.9393   -0.3655 H       1  UNL1        0.0233
     20 H           0.5423   -0.2727    0.9354 H       1  UNL1        0.0233
     21 H           2.7772    0.1585   -1.0993 H       1  UNL1        0.0305
     22 H           2.7775   -1.0599    0.2080 H       1  UNL1        0.0305
     23 H           2.3821    1.5570    1.4261 H       1  UNL1        0.0576
     24 H           4.0345    2.6998    2.4901 H       1  UNL1        0.0279
     25 H           5.4686    2.9516    1.5038 H       1  UNL1        0.0279
     26 H           5.4688    1.7338    2.8111 H       1  UNL1        0.0279
     27 H           7.1432    1.2382    1.1311 H       1  UNL1        0.1731
     28 H           7.3303   -0.9473   -0.8523 H       1  UNL1        0.1731
     29 H          12.5709   -3.2516   -1.4446 H       1  UNL1        0.0694
     30 H          11.1743   -2.5371   -3.5390 H       1  UNL1        0.0626
     31 H           9.2704   -0.9972   -4.2061 H       1  UNL1        0.0278
     32 H           9.2246    0.4857   -3.2376 H       1  UNL1        0.0278
     33 H           8.0250   -0.8063   -2.9679 H       1  UNL1        0.0278
@<TRIPOS>BOND
     1     1     2    1
     2     2     3    1
     3     3     4    2
     4     4     5    1
     5     4     6    1
     6     6     7    2
     7     6     8   am
     8     8     9    1
     9     9    10   am
    10    10    11    2
    11    10    12    1
    12    12    13   ar
    13    13    14   ar
    14    14    15   ar
    15    15    16   ar
    16    12    16   ar
    17    16    17    1
    18     1    18    1
    19     1    19    1
    20     1    20    1
    21     2    21    1
    22     2    22    1
    23     3    23    1
    24     5    24    1
    25     5    25    1
    26     5    26    1
    27     8    27    1
    28     9    28    1
    29    14    29    1
    30    15    30    1
    31    17    31    1
    32    17    32    1
    33    17    33    1
