@<TRIPOS>MOLECULE
*****
 70 71 0 0 0
SMALL
GASTEIGER

@<TRIPOS>ATOM
      1 C           1.0055    0.0940    0.0551 C.3     1  UNL1       -0.0653
      2 C           2.5229    0.0820    0.0552 C.3     1  UNL1       -0.0559
      3 C           3.0470   -1.3506    0.0463 C.3     1  UNL1       -0.0533
      4 C           4.5695   -1.3709    0.0482 C.3     1  UNL1       -0.0519
      5 C           5.1021   -2.8039    0.0413 C.3     1  UNL1       -0.0388
      6 C           6.6236   -2.7849    0.0423 C.3     1  UNL1        0.0174
      7 N           7.1656   -4.1730   -0.0135 N.3     1  UNL1       -0.1900
      8 S           8.8711   -4.1477   -0.0202 S.O2    1  UNL1        0.0584
      9 O           9.2620   -3.5873   -1.2881 O.2     1  UNL1       -0.1531
     10 O           9.2818   -3.5511    1.2397 O.2     1  UNL1       -0.1531
     11 C           9.4087   -5.8360    0.0044 C.ar    1  UNL1        0.1054
     12 C           8.5935   -6.9332   -0.2781 C.ar    1  UNL1       -0.0336
     13 C           9.1055   -8.2453   -0.1184 C.ar    1  UNL1       -0.0386
     14 C          10.4485   -8.4622    0.2460 C.ar    1  UNL1        0.0338
     15 N          10.9875   -9.7852    0.3076 N.am    1  UNL1       -0.2815
     16 C          12.3191  -10.0917    0.6209 C.2     1  UNL1        0.2485
     17 O          13.2057   -9.2936    0.9073 O.2     1  UNL1       -0.2698
     18 C          12.7614  -11.5090    0.5535 C.ar    1  UNL1        0.0442
     19 C          13.7199  -11.9922    1.4633 C.ar    1  UNL1       -0.0039
     20 C          14.3363  -13.2436    1.2698 C.ar    1  UNL1        0.1663
     21 O          15.3641  -13.5212    2.1559 O.3     1  UNL1       -0.4884
     22 C          16.1581  -14.6828    1.8764 C.3     1  UNL1        0.0870
     23 C          17.3387  -14.7967    2.8156 C.3     1  UNL1       -0.0307
     24 C          13.9040  -14.0650    0.2060 C.ar    1  UNL1        0.2038
     25 O          14.4141  -15.3380    0.1718 O.3     1  UNL1       -0.4855
     26 C          14.0129  -16.2674   -0.8196 C.3     1  UNL1        0.0871
     27 C          14.6900  -17.5989   -0.5641 C.3     1  UNL1       -0.0307
     28 C          12.9829  -13.5465   -0.7279 C.ar    1  UNL1        0.1663
     29 O          12.7119  -14.3154   -1.8218 O.3     1  UNL1       -0.4884
     30 C          11.8413  -13.8142   -2.8169 C.3     1  UNL1        0.0870
     31 C          11.7313  -14.8756   -3.8893 C.3     1  UNL1       -0.0307
     32 C          12.4202  -12.2777   -0.5511 C.ar    1  UNL1       -0.0039
     33 C          11.2299   -7.3373    0.5140 C.ar    1  UNL1       -0.0386
     34 C          10.7268   -6.0438    0.3958 C.ar    1  UNL1       -0.0336
     35 H           0.6326    1.1219    0.0619 H       1  UNL1        0.0230
     36 H           0.6144   -0.4203    0.9388 H       1  UNL1        0.0230
     37 H           0.6145   -0.4085   -0.8354 H       1  UNL1        0.0230
     38 H           2.8928    0.6111    0.9414 H       1  UNL1        0.0263
     39 H           2.8931    0.6224   -0.8241 H       1  UNL1        0.0263
     40 H           2.6724   -1.8758   -0.8406 H       1  UNL1        0.0265
     41 H           2.6707   -1.8876    0.9254 H       1  UNL1        0.0265
     42 H           4.9438   -0.8405    0.9328 H       1  UNL1        0.0266
     43 H           4.9444   -0.8318   -0.8312 H       1  UNL1        0.0266
     44 H           4.7311   -3.3329   -0.8451 H       1  UNL1        0.0278
     45 H           4.7298   -3.3474    0.9180 H       1  UNL1        0.0278
     46 H           6.9806   -2.2767    0.9447 H       1  UNL1        0.0441
     47 H           6.9702   -2.2322   -0.8389 H       1  UNL1        0.0441
     48 H           6.8348   -4.6446   -0.8544 H       1  UNL1        0.1480
     49 H           7.5712   -6.7961   -0.6177 H       1  UNL1        0.0638
     50 H           8.4250   -9.0809   -0.2704 H       1  UNL1        0.0637
     51 H          10.3555  -10.5443    0.0843 H       1  UNL1        0.1551
     52 H          14.0151  -11.3704    2.3085 H       1  UNL1        0.0663
     53 H          16.5526  -14.6540    0.8511 H       1  UNL1        0.0694
     54 H          15.5519  -15.5772    2.0522 H       1  UNL1        0.0694
     55 H          18.0285  -13.9601    2.6826 H       1  UNL1        0.0262
     56 H          17.8771  -15.7317    2.6196 H       1  UNL1        0.0262
     57 H          16.9968  -14.7991    3.8531 H       1  UNL1        0.0262
     58 H          14.3442  -15.9177   -1.8015 H       1  UNL1        0.0694
     59 H          12.9298  -16.4206   -0.7756 H       1  UNL1        0.0694
     60 H          15.7789  -17.4887   -0.5763 H       1  UNL1        0.0262
     61 H          14.3972  -18.3146   -1.3376 H       1  UNL1        0.0262
     62 H          14.4130  -17.9991    0.4158 H       1  UNL1        0.0262
     63 H          12.2538  -12.8974   -3.2511 H       1  UNL1        0.0694
     64 H          10.8540  -13.6333   -2.3814 H       1  UNL1        0.0694
     65 H          12.7132  -15.0867   -4.3265 H       1  UNL1        0.0262
     66 H          11.0500  -14.5464   -4.6759 H       1  UNL1        0.0262
     67 H          11.3656  -15.8161   -3.4633 H       1  UNL1        0.0262
     68 H          11.7616  -11.8510   -1.2968 H       1  UNL1        0.0663
     69 H          12.2592   -7.4120    0.8395 H       1  UNL1        0.0637
     70 H          11.3848   -5.2056    0.6182 H       1  UNL1        0.0638
@<TRIPOS>BOND
     1     1     2    1
     2     2     3    1
     3     3     4    1
     4     4     5    1
     5     5     6    1
     6     6     7    1
     7     7     8    1
     8     8     9    2
     9     8    10    2
    10     8    11    1
    11    11    12   ar
    12    12    13   ar
    13    13    14   ar
    14    14    15    1
    15    15    16   am
    16    16    17    2
    17    16    18    1
    18    18    19   ar
    19    19    20   ar
    20    20    21    1
    21    21    22    1
    22    22    23    1
    23    20    24   ar
    24    24    25    1
    25    25    26    1
    26    26    27    1
    27    24    28   ar
    28    28    29    1
    29    29    30    1
    30    30    31    1
    31    28    32   ar
    32    18    32   ar
    33    14    33   ar
    34    33    34   ar
    35    11    34   ar
    36     1    35    1
    37     1    36    1
    38     1    37    1
    39     2    38    1
    40     2    39    1
    41     3    40    1
    42     3    41    1
    43     4    42    1
    44     4    43    1
    45     5    44    1
    46     5    45    1
    47     6    46    1
    48     6    47    1
    49     7    48    1
    50    12    49    1
    51    13    50    1
    52    15    51    1
    53    19    52    1
    54    22    53    1
    55    22    54    1
    56    23    55    1
    57    23    56    1
    58    23    57    1
    59    26    58    1
    60    26    59    1
    61    27    60    1
    62    27    61    1
    63    27    62    1
    64    30    63    1
    65    30    64    1
    66    31    65    1
    67    31    66    1
    68    31    67    1
    69    32    68    1
    70    33    69    1
    71    34    70    1
