REMARK  10 active torsions:
REMARK  status: ('A' for Active; 'I' for Inactive)
REMARK    1  A    between atoms: O_2  and  C_3 
REMARK    2  A    between atoms: C_5  and  C_6 
REMARK    3  A    between atoms: C_6  and  O_8 
REMARK    4  A    between atoms: O_8  and  C_9 
REMARK    5  A    between atoms: C_9  and  C_10 
REMARK    6  A    between atoms: C_10  and  C_12 
REMARK    7  A    between atoms: C_24  and  O_25 
REMARK    8  A    between atoms: O_25  and  C_26 
REMARK    9  A    between atoms: C_26  and  C_27 
REMARK       I    between atoms: C_27  and  N_29 
REMARK   10  A    between atoms: N_29  and  C_30 
ROOT
ATOM      1  C   UNL d   1       2.989  -0.953  -0.513  0.00  0.00     0.102 A 
ATOM      2  C   UNL d   1       4.121  -1.482   0.142  0.00  0.00     0.057 A 
ATOM      3  C   UNL d   1       4.954  -2.433  -0.477  0.00  0.00     0.042 A 
ATOM      4  C   UNL d   1       4.599  -2.961  -1.716  0.00  0.00     0.020 A 
ATOM      5  C   UNL d   1       3.489  -2.448  -2.374  0.00  0.00     0.040 A 
ATOM      6  C   UNL d   1       2.696  -1.427  -1.812  0.00  0.00     0.102 A 
ENDROOT
BRANCH   3   7
ATOM      7  C   UNL d   1       6.257  -2.770   0.124  0.00  0.00     0.293 C 
ATOM      8  O   UNL d   1       6.686  -2.294   1.194  0.00  0.00    -0.259 OA
BRANCH   7   9
ATOM      9  O   UNL d   1       6.956  -3.608  -0.669  0.00  0.00    -0.310 OA
BRANCH   9  10
ATOM     10  C   UNL d   1       8.243  -3.903  -0.146  0.00  0.00     0.262 C 
BRANCH  10  11
ATOM     11  C   UNL d   1       9.021  -4.891  -0.987  0.00  0.00     0.182 C 
ATOM     12  O   UNL d   1       8.435  -5.316  -1.986  0.00  0.00    -0.290 OA
BRANCH  11  13
ATOM     13  C   UNL d   1      10.424  -5.396  -0.652  0.00  0.00     0.025 C 
ATOM     14  C   UNL d   1      10.981  -6.208  -1.569  0.00  0.00     0.002 C 
ATOM     15  C   UNL d   1      10.517  -6.705  -2.825  0.00  0.00     0.014 C 
ATOM     16  C   UNL d   1      12.328  -6.569  -1.094  0.00  0.00     0.039 C 
ATOM     17  C   UNL d   1      11.195  -7.636  -3.491  0.00  0.00     0.001 C 
ATOM     18  C   UNL d   1      12.494  -8.064  -3.038  0.00  0.00     0.002 C 
ATOM     19  C   UNL d   1      13.065  -7.609  -1.899  0.00  0.00     0.030 C 
ATOM     20  N   UNL d   1      12.646  -5.891  -0.044  0.00  0.00    -0.381 N 
ATOM     21  C   UNL d   1      11.449  -5.022   0.414  0.00  0.00     0.115 C 
ATOM     22  H   UNL d   1      13.504  -6.130   0.466  0.00  0.00     0.160 HD
ATOM     23  C   UNL d   1      10.865  -4.080   1.469  0.00  0.00     0.037 C 
ENDBRANCH  11  13
ENDBRANCH  10  11
ENDBRANCH   9  10
ENDBRANCH   7   9
ENDBRANCH   3   7
BRANCH   1  24
ATOM     24  O   UNL d   1       2.483   0.164   0.119  0.00  0.00    -0.353 OA
ATOM     25  C   UNL d   1       1.111   0.221   0.509  0.00  0.00     0.210 C 
ENDBRANCH   1  24
BRANCH   6  26
ATOM     26  O   UNL d   1       1.764  -1.014  -2.735  0.00  0.00    -0.339 OA
BRANCH  26  27
ATOM     27  C   UNL d   1       0.792  -0.125  -2.265  0.00  0.00     0.278 C 
BRANCH  27  28
ATOM     28  C   UNL d   1      -0.365   0.289  -3.151  0.00  0.00     0.246 C 
ATOM     29  O   UNL d   1      -0.532  -0.254  -4.240  0.00  0.00    -0.271 OA
ATOM     30  N   UNL d   1      -1.204   1.283  -2.614  0.00  0.00    -0.325 N 
ATOM     31  H   UNL d   1      -0.933   1.846  -1.814  0.00  0.00     0.169 HD
BRANCH  30  32
ATOM     32  C   UNL d   1      -2.376   1.659  -3.307  0.00  0.00     0.035 A 
ATOM     33  C   UNL d   1      -2.773   2.996  -3.420  0.00  0.00     0.032 A 
ATOM     34  C   UNL d   1      -3.925   3.308  -4.159  0.00  0.00     0.044 A 
ATOM     35  C   UNL d   1      -4.643   2.294  -4.792  0.00  0.00     0.116 A 
ATOM     36  F   UNL d   1      -5.696   2.601  -5.559  0.00  0.00    -0.206 F 
ATOM     37  C   UNL d   1      -4.272   0.968  -4.653  0.00  0.00     0.044 A 
ATOM     38  C   UNL d   1      -3.149   0.656  -3.901  0.00  0.00     0.032 A 
ENDBRANCH  30  32
ENDBRANCH  27  28
ENDBRANCH  26  27
ENDBRANCH   6  26
TORSDOF 10
