@<TRIPOS>MOLECULE
*****
 51 55 0 0 0
SMALL
GASTEIGER

@<TRIPOS>ATOM
      1 C          -2.8619    6.4023    4.7401 C.3     1  UNL1       -0.0388
      2 C          -2.4985    5.0188    5.2204 C.ar    1  UNL1       -0.0334
      3 C          -3.4372    4.3093    5.9950 C.ar    1  UNL1        0.0192
      4 C          -3.1194    3.0392    6.4916 C.ar    1  UNL1        0.2734
      5 N          -4.1138    2.3039    7.2890 N.pl3   1  UNL1        0.0796
      6 O          -5.2091    2.8382    7.4851 O.2     1  UNL1        0.0414
      7 O          -3.7888    1.1818    7.7172 O.co2   1  UNL1       -0.5760
      8 C          -1.8658    2.4747    6.2315 C.ar    1  UNL1        0.0163
      9 C          -0.9327    3.1726    5.4477 C.ar    1  UNL1       -0.0444
     10 C          -1.2341    4.4410    4.9266 C.ar    1  UNL1        0.0206
     11 C          -0.1965    5.2400    4.2709 C.ar    1  UNL1        0.1356
     12 C           0.3269    6.4556    4.6516 C.ar    1  UNL1       -0.0155
     13 C           1.2057    6.8522    3.6447 C.ar    1  UNL1       -0.0163
     14 C           1.2245    5.8529    2.6911 C.ar    1  UNL1        0.1480
     15 C           2.0345    5.7883    1.3990 C.3     1  UNL1        0.1759
     16 N           3.4720    5.7120    1.7942 N.2     1  UNL1       -0.2196
     17 C           4.0753    6.8434    1.8543 C.2     1  UNL1        0.2199
     18 O           5.3492    6.8958    2.2870 O.2     1  UNL1       -0.4921
     19 C           3.4938    8.1149    1.5037 C.ar    1  UNL1        0.0680
     20 C           2.3193    8.0937    0.7928 C.ar    1  UNL1        0.0803
     21 S           1.7590    9.6630    0.4315 S.2     1  UNL1       -0.0724
     22 C           3.0827   10.3872    1.2405 C.ar    1  UNL1        0.0400
     23 C           3.9346    9.4378    1.7864 C.ar    1  UNL1       -0.0130
     24 C           5.1840    9.8130    2.5285 C.3     1  UNL1        0.0144
     25 C           5.1653   11.2948    2.9195 C.3     1  UNL1       -0.0277
     26 N           4.7701   12.1523    1.7176 N.4     1  UNL1        0.2369
     27 C           5.7035   11.9715    0.5453 C.3     1  UNL1       -0.0427
     28 C           3.3099   11.8703    1.3259 C.3     1  UNL1        0.0005
     29 N           1.7403    6.9113    0.4810 N.pl3   1  UNL1       -0.3106
     30 O           0.3615    4.8388    3.0737 O.2     1  UNL1       -0.4559
     31 H          -3.8891    6.6713    5.0033 H       1  UNL1        0.0278
     32 H          -2.7689    6.4576    3.6512 H       1  UNL1        0.0278
     33 H          -2.2168    7.1545    5.2038 H       1  UNL1        0.0278
     34 H          -4.4055    4.7590    6.2130 H       1  UNL1        0.0688
     35 H          -1.5952    1.5026    6.6421 H       1  UNL1        0.0685
     36 H           0.0509    2.7354    5.2857 H       1  UNL1        0.0627
     37 H           0.0615    7.0042    5.5422 H       1  UNL1        0.0655
     38 H           1.7672    7.7688    3.6046 H       1  UNL1        0.0653
     39 H           1.8010    4.8590    0.8656 H       1  UNL1        0.0837
     40 H           5.6266    5.9881    2.4950 H       1  UNL1        0.2937
     41 H           6.0471    9.6126    1.8810 H       1  UNL1        0.0366
     42 H           5.3046    9.2007    3.4262 H       1  UNL1        0.0366
     43 H           6.1419   11.6377    3.2749 H       1  UNL1        0.0818
     44 H           4.4196   11.4885    3.7013 H       1  UNL1        0.0818
     45 H           4.8325   13.1366    2.0071 H       1  UNL1        0.2034
     46 H           5.6029   10.9573    0.1500 H       1  UNL1        0.0778
     47 H           6.7244   12.1432    0.8948 H       1  UNL1        0.0778
     48 H           5.4277   12.6938   -0.2242 H       1  UNL1        0.0778
     49 H           3.1259   12.4012    0.3865 H       1  UNL1        0.0872
     50 H           2.6978   12.3265    2.1140 H       1  UNL1        0.0872
     51 H           0.8761    6.8357   -0.0455 H       1  UNL1        0.1490
@<TRIPOS>UNITY_ATOM_ATTR
5 1
charge 1
7 1
charge -1
26 1
charge 1
@<TRIPOS>BOND
     1     1     2    1
     2     2     3   ar
     3     3     4   ar
     4     4     5    1
     5     5     6    2
     6     5     7    1
     7     4     8   ar
     8     8     9   ar
     9     9    10   ar
    10     2    10   ar
    11    10    11    1
    12    11    12   ar
    13    12    13   ar
    14    13    14   ar
    15    15    16    1
    16    16    17    2
    17    17    18    1
    18    17    19    1
    19    19    20   ar
    20    20    21   ar
    21    21    22   ar
    22    22    23   ar
    23    19    23   ar
    24    23    24    1
    25    24    25    1
    26    25    26    1
    27    26    27    1
    28    26    28    1
    29    22    28    1
    30    20    29    1
    31    15    29    1
    32    14    30   ar
    33    11    30   ar
    34    15    14    1
    35     1    31    1
    36     1    32    1
    37     1    33    1
    38     3    34    1
    39     8    35    1
    40     9    36    1
    41    12    37    1
    42    13    38    1
    43    15    39    1
    44    18    40    1
    45    24    41    1
    46    24    42    1
    47    25    43    1
    48    25    44    1
    49    26    45    1
    50    27    46    1
    51    27    47    1
    52    27    48    1
    53    28    49    1
    54    28    50    1
    55    29    51    1
