@<TRIPOS>MOLECULE
*****
 60 61 0 0 0
SMALL
GASTEIGER

@<TRIPOS>ATOM
      1 C           0.9319   -0.1235    0.0109 C.3     1  UNL1       -0.0560
      2 C           2.4799   -0.0922    0.0051 C.3     1  UNL1       -0.0127
      3 C           2.9607   -1.1335    1.0358 C.3     1  UNL1       -0.0560
      4 C           2.9868   -0.5061   -1.3879 C.3     1  UNL1       -0.0560
      5 C           2.9550    1.3294    0.3325 C.ar    1  UNL1       -0.0418
      6 C           3.8530    1.6209    1.3690 C.ar    1  UNL1       -0.0546
      7 C           4.1149    2.9491    1.7354 C.ar    1  UNL1       -0.0196
      8 C           3.5650    4.0147    1.0126 C.ar    1  UNL1        0.1212
      9 O           3.9212    5.2730    1.4030 O.3     1  UNL1       -0.4828
     10 C           3.5107    6.4077    0.6025 C.3     1  UNL1        0.1655
     11 C           4.1920    7.6655    1.1976 C.2     1  UNL1        0.2561
     12 O           4.9693    7.5090    2.1429 O.2     1  UNL1       -0.2717
     13 N           3.9077    8.9402    0.6418 N.am    1  UNL1       -0.2639
     14 C           4.4416   10.1796    1.0897 C.2     1  UNL1        0.1531
     15 S           5.5234   10.3645    2.3748 S.2     1  UNL1       -0.0170
     16 N           4.0172   11.3276    0.3905 N.am    1  UNL1       -0.2455
     17 N           4.5282   12.6387    0.8022 N.am    1  UNL1       -0.2351
     18 C           4.1541   13.8102    0.1620 C.2     1  UNL1        0.2295
     19 O           3.3669   13.8059   -0.7930 O.2     1  UNL1       -0.2743
     20 C           4.7750   15.1056    0.7110 C.3     1  UNL1        0.0336
     21 C           4.3139   16.3838   -0.0420 C.3     1  UNL1        0.0326
     22 C           4.9497   17.6427    0.5453 C.2     1  UNL1        0.2177
     23 O           5.7376   17.5500    1.4920 O.2     1  UNL1       -0.2755
     24 N           4.5652   18.8560   -0.0224 N.am    1  UNL1       -0.2855
     25 C           5.1681   20.0969    0.3304 C.ar    1  UNL1        0.0334
     26 C           4.4367   21.2924    0.3334 C.ar    1  UNL1       -0.0405
     27 C           5.0786   22.5141    0.6067 C.ar    1  UNL1       -0.0600
     28 C           6.4425   22.5458    0.8992 C.ar    1  UNL1       -0.0616
     29 C           7.1709   21.3626    0.8993 C.ar    1  UNL1       -0.0600
     30 C           6.5356   20.1524    0.6188 C.ar    1  UNL1       -0.0405
     31 C           2.7132    3.7348   -0.0441 C.ar    1  UNL1       -0.0196
     32 C           2.4234    2.4138   -0.3847 C.ar    1  UNL1       -0.0546
     33 H           0.5511   -1.1268   -0.2063 H       1  UNL1        0.0238
     34 H           0.4961    0.5440   -0.7409 H       1  UNL1        0.0238
     35 H           0.5375    0.1874    0.9859 H       1  UNL1        0.0238
     36 H           2.5766   -2.1332    0.8064 H       1  UNL1        0.0238
     37 H           2.6190   -0.8736    2.0455 H       1  UNL1        0.0238
     38 H           4.0542   -1.2042    1.0566 H       1  UNL1        0.0238
     39 H           2.6373   -1.5111   -1.6512 H       1  UNL1        0.0238
     40 H           4.0820   -0.5089   -1.4266 H       1  UNL1        0.0238
     41 H           2.6327    0.1751   -2.1702 H       1  UNL1        0.0238
     42 H           4.3548    0.8321    1.9260 H       1  UNL1        0.0622
     43 H           4.7464    3.1362    2.6026 H       1  UNL1        0.0654
     44 H           2.4233    6.5076    0.6693 H       1  UNL1        0.0795
     45 H           3.8439    6.2705   -0.4323 H       1  UNL1        0.0795
     46 H           3.2670    8.9655   -0.1402 H       1  UNL1        0.1566
     47 H           3.3724   11.3584   -0.3973 H       1  UNL1        0.1718
     48 H           5.1763   12.6223    1.5939 H       1  UNL1        0.1728
     49 H           5.8696   15.0274    0.6556 H       1  UNL1        0.0363
     50 H           4.5149   15.2017    1.7739 H       1  UNL1        0.0363
     51 H           3.2244   16.4784    0.0182 H       1  UNL1        0.0363
     52 H           4.5961   16.3117   -1.0988 H       1  UNL1        0.0363
     53 H           3.7774   18.8918   -0.6593 H       1  UNL1        0.1548
     54 H           3.3592   21.2992    0.1902 H       1  UNL1        0.0636
     55 H           4.5198   23.4480    0.5949 H       1  UNL1        0.0618
     56 H           6.9395   23.4852    1.1296 H       1  UNL1        0.0618
     57 H           8.2381   21.3693    1.1026 H       1  UNL1        0.0618
     58 H           7.1404   19.2511    0.5915 H       1  UNL1        0.0636
     59 H           2.2333    4.5182   -0.6143 H       1  UNL1        0.0654
     60 H           1.7489    2.2441   -1.2198 H       1  UNL1        0.0622
@<TRIPOS>BOND
     1     1     2    1
     2     2     3    1
     3     2     4    1
     4     2     5    1
     5     5     6   ar
     6     6     7   ar
     7     7     8   ar
     8     8     9    1
     9     9    10    1
    10    10    11    1
    11    11    12    2
    12    11    13   am
    13    13    14    1
    14    14    15    2
    15    14    16    1
    16    16    17    1
    17    17    18   am
    18    18    19    2
    19    18    20    1
    20    20    21    1
    21    21    22    1
    22    22    23    2
    23    22    24   am
    24    24    25    1
    25    25    26   ar
    26    26    27   ar
    27    27    28   ar
    28    28    29   ar
    29    29    30   ar
    30    25    30   ar
    31     8    31   ar
    32    31    32   ar
    33     5    32   ar
    34     1    33    1
    35     1    34    1
    36     1    35    1
    37     3    36    1
    38     3    37    1
    39     3    38    1
    40     4    39    1
    41     4    40    1
    42     4    41    1
    43     6    42    1
    44     7    43    1
    45    10    44    1
    46    10    45    1
    47    13    46    1
    48    16    47    1
    49    17    48    1
    50    20    49    1
    51    20    50    1
    52    21    51    1
    53    21    52    1
    54    24    53    1
    55    26    54    1
    56    27    55    1
    57    28    56    1
    58    29    57    1
    59    30    58    1
    60    31    59    1
    61    32    60    1
