REMARK  7 active torsions:
REMARK  status: ('A' for Active; 'I' for Inactive)
REMARK    1  A    between atoms: O_2  and  C_3 
REMARK    2  A    between atoms: C_8  and  C_9 
REMARK    3  A    between atoms: N_10  and  N_11 
REMARK    4  A    between atoms: N_11  and  C_12 
REMARK    5  A    between atoms: C_16  and  C_17 
REMARK    6  A    between atoms: C_17  and  C_18 
REMARK       I    between atoms: C_18  and  N_20 
REMARK    7  A    between atoms: N_20  and  C_21 
ROOT
ATOM      1  C   UNL d   1       0.362  -1.331   1.072  0.00  0.00     0.186 C 
ATOM      2  N   UNL d   1       0.846  -2.530   0.899  0.00  0.00    -0.187 NA
ATOM      3  C   UNL d   1      -0.111  -3.450   0.566  0.00  0.00     0.260 C 
ATOM      4  O   UNL d   1       0.128  -4.660   0.426  0.00  0.00    -0.270 OA
ATOM      5  C   UNL d   1      -1.530  -2.921   0.479  0.00  0.00     0.158 C 
ATOM      6  S   UNL d   1      -1.316  -1.111   0.451  0.00  0.00    -0.076 SA
ENDROOT
BRANCH   5   7
ATOM      7  C   UNL d   1      -2.361  -3.384   1.687  0.00  0.00     0.128 C 
BRANCH   7   8
ATOM      8  C   UNL d   1      -1.926  -2.696   2.977  0.00  0.00     0.223 C 
ATOM      9  O   UNL d   1      -0.902  -2.025   3.052  0.00  0.00    -0.273 OA
ATOM     10  N   UNL d   1      -2.672  -2.882   4.108  0.00  0.00    -0.327 N 
ATOM     11  H   UNL d   1      -3.195  -3.739   4.207  0.00  0.00     0.169 HD
BRANCH  10  12
ATOM     12  C   UNL d   1      -2.310  -2.143   5.266  0.00  0.00     0.036 A 
ATOM     13  C   UNL d   1      -2.199  -2.775   6.497  0.00  0.00     0.030 A 
ATOM     14  C   UNL d   1      -1.917  -2.018   7.641  0.00  0.00     0.011 A 
ATOM     15  C   UNL d   1      -1.677  -0.634   7.559  0.00  0.00    -0.040 A 
ATOM     16  C   UNL d   1      -1.270   0.132   8.784  0.00  0.00     0.050 C 
ATOM     17  C   UNL d   1      -1.775  -0.010   6.311  0.00  0.00     0.042 A 
ATOM     18 CL   UNL d   1      -1.592   1.700   6.132  0.00  0.00    -0.084 Cl
ATOM     19  C   UNL d   1      -2.074  -0.760   5.176  0.00  0.00     0.053 A 
ENDBRANCH  10  12
ENDBRANCH   7   8
ENDBRANCH   5   7
BRANCH   1  20
ATOM     20  N   UNL d   1       1.137  -0.281   1.555  0.00  0.00    -0.256 N 
ATOM     21  H   UNL d   1       2.095  -0.406   1.230  0.00  0.00     0.191 HD
BRANCH  20  22
ATOM     22  N   UNL d   1       0.767   0.992   1.923  0.00  0.00    -0.184 NA
ATOM     23  C   UNL d   1       1.502   2.024   1.580  0.00  0.00     0.152 C 
BRANCH  23  24
ATOM     24  C   UNL d   1       2.682   2.182   0.666  0.00  0.00     0.016 C 
ATOM     25  C   UNL d   1       3.455   3.358   0.796  0.00  0.00     0.016 C 
ATOM     26  C   UNL d   1       4.631   3.543   0.045  0.00  0.00     0.001 C 
ATOM     27  C   UNL d   1       5.074   2.542  -0.811  0.00  0.00     0.003 C 
ATOM     28  C   UNL d   1       4.276   1.426  -1.010  0.00  0.00     0.037 C 
ATOM     29  C   UNL d   1       3.066   1.272  -0.323  0.00  0.00     0.080 C 
BRANCH  29  30
ATOM     30  O   UNL d   1       2.417   0.129  -0.673  0.00  0.00    -0.355 OA
ATOM     31  C   UNL d   1       1.082   0.308  -1.135  0.00  0.00     0.210 C 
ENDBRANCH  29  30
ENDBRANCH  23  24
ENDBRANCH  20  22
ENDBRANCH   1  20
TORSDOF 7
