@<TRIPOS>MOLECULE
*****
 37 38 0 0 0
SMALL
GASTEIGER

@<TRIPOS>ATOM
      1 C           1.1364   -0.0249    0.0637 C.3     1  UNL1        0.0004
      2 N           2.5802   -0.0774    0.0652 N.am    1  UNL1       -0.3144
      3 C           3.2437   -1.2862    0.0055 C.2     1  UNL1        0.2438
      4 O           2.6675   -2.3733   -0.0548 O.2     1  UNL1       -0.2702
      5 C           4.7299   -1.2505    0.0390 C.ar    1  UNL1        0.0368
      6 C           5.4901   -2.1669   -0.7027 C.ar    1  UNL1       -0.0479
      7 C           6.8939   -2.2297   -0.5525 C.ar    1  UNL1       -0.0398
      8 C           7.5574   -1.3385    0.3029 C.ar    1  UNL1        0.0337
      9 N           8.9824   -1.3354    0.3797 N.am    1  UNL1       -0.2815
     10 C           9.7286   -0.4593    1.1632 C.2     1  UNL1        0.2483
     11 O           9.2873    0.3952    1.9330 O.2     1  UNL1       -0.2699
     12 C          11.2052   -0.5075    1.0830 C.ar    1  UNL1        0.0370
     13 C          11.9323   -0.2931    2.2656 C.ar    1  UNL1       -0.0493
     14 C          13.3155   -0.1075    2.2258 C.ar    1  UNL1       -0.0557
     15 C          14.0041   -0.1973    1.0088 C.ar    1  UNL1       -0.0221
     16 C          15.5131   -0.1309    1.0176 C.3     1  UNL1        0.0692
     17 O          16.0745   -0.3286   -0.2736 O.3     1  UNL1       -0.3904
     18 C          13.2611   -0.3771   -0.1714 C.ar    1  UNL1       -0.0557
     19 C          11.8704   -0.5352   -0.1403 C.ar    1  UNL1       -0.0493
     20 C           6.7709   -0.4492    1.0446 C.ar    1  UNL1       -0.0398
     21 C           5.3807   -0.3940    0.9177 C.ar    1  UNL1       -0.0479
     22 H           0.8113    1.0188    0.0579 H       1  UNL1        0.0426
     23 H           0.7558   -0.5243    0.9596 H       1  UNL1        0.0426
     24 H           0.7525   -0.5373   -0.8229 H       1  UNL1        0.0426
     25 H           3.0979    0.7923    0.0351 H       1  UNL1        0.1487
     26 H           4.9861   -2.8401   -1.3951 H       1  UNL1        0.0626
     27 H           7.4368   -2.9958   -1.1023 H       1  UNL1        0.0636
     28 H           9.4777   -2.0037   -0.1995 H       1  UNL1        0.1551
     29 H          11.4123   -0.2388    3.2216 H       1  UNL1        0.0625
     30 H          13.8466    0.1227    3.1488 H       1  UNL1        0.0621
     31 H          15.8991   -0.9288    1.6627 H       1  UNL1        0.0607
     32 H          15.8644    0.8312    1.4027 H       1  UNL1        0.0607
     33 H          15.7436   -1.1857   -0.5913 H       1  UNL1        0.2098
     34 H          13.7586   -0.3643   -1.1388 H       1  UNL1        0.0621
     35 H          11.3245   -0.6165   -1.0746 H       1  UNL1        0.0625
     36 H           7.2021    0.2251    1.7732 H       1  UNL1        0.0636
     37 H           4.8321    0.2959    1.5508 H       1  UNL1        0.0626
@<TRIPOS>BOND
     1     1     2    1
     2     2     3   am
     3     3     4    2
     4     3     5    1
     5     5     6   ar
     6     6     7   ar
     7     7     8   ar
     8     8     9    1
     9     9    10   am
    10    10    11    2
    11    10    12    1
    12    12    13   ar
    13    13    14   ar
    14    14    15   ar
    15    15    16    1
    16    16    17    1
    17    15    18   ar
    18    18    19   ar
    19    12    19   ar
    20     8    20   ar
    21    20    21   ar
    22     5    21   ar
    23     1    22    1
    24     1    23    1
    25     1    24    1
    26     2    25    1
    27     6    26    1
    28     7    27    1
    29     9    28    1
    30    13    29    1
    31    14    30    1
    32    16    31    1
    33    16    32    1
    34    17    33    1
    35    18    34    1
    36    19    35    1
    37    20    36    1
    38    21    37    1
