@<TRIPOS>MOLECULE
*****
 44 44 0 0 0
SMALL
GASTEIGER

@<TRIPOS>ATOM
      1 C           0.7767    0.4611    0.3378 C.3     1  UNL1       -0.0307
      2 C           2.2841    0.5009    0.5341 C.3     1  UNL1        0.0868
      3 O           2.9679    1.4332   -0.3125 O.3     1  UNL1       -0.4920
      4 C           4.3547    1.4600   -0.3985 C.ar    1  UNL1        0.1236
      5 C           4.9135    2.7060   -0.0257 C.ar    1  UNL1       -0.0197
      6 C           6.2571    3.0308   -0.2809 C.ar    1  UNL1       -0.0583
      7 C           7.0981    2.0933   -0.8585 C.ar    1  UNL1       -0.0613
      8 C           6.5755    0.8586   -1.2345 C.ar    1  UNL1       -0.0551
      9 C           5.2049    0.5189   -1.0501 C.ar    1  UNL1       -0.0053
     10 C           4.8677   -0.8674   -1.6291 C.3     1  UNL1       -0.0159
     11 C           3.4461   -1.2638   -1.3903 C.3     1  UNL1        0.0295
     12 C           2.7410   -2.5611   -1.6844 C.2     1  UNL1        0.2294
     13 O           3.3482   -3.5446   -2.1264 O.2     1  UNL1       -0.2743
     14 N           1.3838   -2.6165   -1.3308 N.am    1  UNL1       -0.2332
     15 N           0.6842   -3.8404   -1.5279 N.am    1  UNL1       -0.2182
     16 C          -0.6531   -3.9769   -1.1931 C.2     1  UNL1        0.3162
     17 O          -1.2958   -3.0710   -0.6490 O.2     1  UNL1       -0.2513
     18 N          -1.2004   -5.1952   -1.5562 N.am    1  UNL1       -0.2959
     19 C          -2.6142   -5.5540   -1.3357 C.3     1  UNL1        0.0190
     20 C          -3.5571   -4.6266   -2.1052 C.3     1  UNL1       -0.0468
     21 C          -2.9282   -7.0003   -1.7528 C.3     1  UNL1       -0.0468
     22 H           0.3992   -0.5150    0.6904 H       1  UNL1        0.0262
     23 H           0.5321    0.5018   -0.7344 H       1  UNL1        0.0262
     24 H           0.2563    1.2446    0.8723 H       1  UNL1        0.0262
     25 H           2.3559   -0.4812    0.1635 H       1  UNL1        0.0694
     26 H           2.7036    0.3860    1.5356 H       1  UNL1        0.0694
     27 H           4.2905    3.4622    0.4487 H       1  UNL1        0.0654
     28 H           6.6427    4.0225   -0.0506 H       1  UNL1        0.0619
     29 H           8.1489    2.3190   -1.0315 H       1  UNL1        0.0618
     30 H           7.2469    0.1467   -1.7163 H       1  UNL1        0.0621
     31 H           5.5076   -1.5848   -1.0941 H       1  UNL1        0.0319
     32 H           5.1143   -0.9144   -2.6916 H       1  UNL1        0.0319
     33 H           2.8150   -0.4562   -1.7861 H       1  UNL1        0.0362
     34 H           3.5711   -1.3854   -0.3103 H       1  UNL1        0.0362
     35 H           0.8140   -1.8470   -0.9710 H       1  UNL1        0.1728
     36 H           1.2421   -4.5843   -1.9328 H       1  UNL1        0.1744
     37 H          -0.5896   -5.8947   -1.9532 H       1  UNL1        0.1505
     38 H          -2.8136   -5.4546   -0.2615 H       1  UNL1        0.0493
     39 H          -3.3785   -4.7003   -3.1833 H       1  UNL1        0.0247
     40 H          -3.4224   -3.5821   -1.8159 H       1  UNL1        0.0247
     41 H          -4.6053   -4.8845   -1.9150 H       1  UNL1        0.0247
     42 H          -2.7468   -7.1572   -2.8225 H       1  UNL1        0.0247
     43 H          -3.9840   -7.2404   -1.5650 H       1  UNL1        0.0247
     44 H          -2.3242   -7.7260   -1.1999 H       1  UNL1        0.0247
@<TRIPOS>BOND
     1     1     2    1
     2     2     3    1
     3     3     4    1
     4     4     5   ar
     5     5     6   ar
     6     6     7   ar
     7     7     8   ar
     8     8     9   ar
     9     4     9   ar
    10     9    10    1
    11    10    11    1
    12    11    12    1
    13    12    13    2
    14    12    14   am
    15    14    15    1
    16    15    16   am
    17    16    17    2
    18    16    18   am
    19    18    19    1
    20    19    20    1
    21    19    21    1
    22     1    22    1
    23     1    23    1
    24     1    24    1
    25     2    25    1
    26     2    26    1
    27     5    27    1
    28     6    28    1
    29     7    29    1
    30     8    30    1
    31    10    31    1
    32    10    32    1
    33    11    33    1
    34    11    34    1
    35    14    35    1
    36    15    36    1
    37    18    37    1
    38    19    38    1
    39    20    39    1
    40    20    40    1
    41    20    41    1
    42    21    42    1
    43    21    43    1
    44    21    44    1
