@<TRIPOS>MOLECULE
*****
 46 47 0 0 0
SMALL
GASTEIGER

@<TRIPOS>ATOM
      1 C           1.0203    0.0321   -0.0427 C.3     1  UNL1       -0.0306
      2 C           2.5252   -0.0482   -0.0181 C.3     1  UNL1        0.0897
      3 O           2.9589   -1.3796    0.3835 O.3     1  UNL1       -0.4646
      4 C           4.3035   -1.4029    0.5142 C.2     1  UNL1        0.3171
      5 O           4.9586   -0.3446    0.3862 O.2     1  UNL1       -0.2503
      6 C           5.0157   -2.7193    0.8529 C.3     1  UNL1        0.1328
      7 C           6.3418   -2.5330   -0.0219 C.3     1  UNL1        0.0650
      8 C           7.6607   -3.3017    0.1615 C.ar    1  UNL1       -0.0226
      9 C           7.8225   -4.6080   -0.3478 C.ar    1  UNL1       -0.0531
     10 C           8.7170   -5.4902    0.2300 C.ar    1  UNL1       -0.0162
     11 C           9.6965   -5.0052    1.0616 C.ar    1  UNL1        0.1585
     12 O          10.5681   -5.9308    1.5630 O.3     1  UNL1       -0.5033
     13 C           9.7502   -3.6333    1.3636 C.ar    1  UNL1        0.1620
     14 O          10.7494   -3.0022    2.0615 O.3     1  UNL1       -0.4886
     15 C          11.8668   -3.8432    2.3339 C.3     1  UNL1        0.0870
     16 C          12.9781   -3.0357    2.9419 C.3     1  UNL1       -0.0307
     17 C           8.6926   -2.7948    0.9661 C.ar    1  UNL1       -0.0113
     18 N           5.9136   -2.6760   -1.4041 N.am    1  UNL1       -0.3187
     19 C           5.2390   -3.7787   -1.8254 C.2     1  UNL1        0.1330
     20 S           5.5381   -4.4792   -3.2993 S.2     1  UNL1       -0.0188
     21 N           4.2893   -4.2411   -0.9626 N.am    1  UNL1       -0.2913
     22 C           4.3813   -4.0990    0.4953 C.3     1  UNL1        0.2444
     23 O           3.0474   -4.3495    0.9671 O.3     1  UNL1       -0.3639
     24 C           5.2356   -5.2327    1.2547 C.3     1  UNL1        0.4363
     25 F           5.2359   -6.4176    0.6002 F       1  UNL1       -0.1660
     26 F           6.4981   -4.8792    1.4734 F       1  UNL1       -0.1660
     27 F           4.8065   -5.4629    2.5204 F       1  UNL1       -0.1660
     28 H           0.6874    1.0272   -0.3587 H       1  UNL1        0.0262
     29 H           0.6210   -0.1739    0.9534 H       1  UNL1        0.0262
     30 H           0.6183   -0.7140   -0.7312 H       1  UNL1        0.0262
     31 H           2.9012    0.7155    0.6808 H       1  UNL1        0.0694
     32 H           2.9175    0.1777   -1.0209 H       1  UNL1        0.0694
     33 H           5.1696   -2.6839    1.9388 H       1  UNL1        0.0484
     34 H           6.6894   -1.5001    0.0855 H       1  UNL1        0.0558
     35 H           7.0737   -5.0891   -0.9573 H       1  UNL1        0.0622
     36 H           8.5308   -6.5561    0.1294 H       1  UNL1        0.0655
     37 H          10.4141   -6.7817    1.1218 H       1  UNL1        0.2923
     38 H          12.2495   -4.2956    1.4086 H       1  UNL1        0.0694
     39 H          11.5734   -4.5993    3.0701 H       1  UNL1        0.0694
     40 H          13.3142   -2.2688    2.2402 H       1  UNL1        0.0262
     41 H          13.8132   -3.6972    3.1878 H       1  UNL1        0.0262
     42 H          12.6230   -2.5405    3.8482 H       1  UNL1        0.0262
     43 H           8.6703   -1.7629    1.3178 H       1  UNL1        0.0659
     44 H           6.3070   -2.0429   -2.0908 H       1  UNL1        0.1483
     45 H           3.6162   -4.8977   -1.3442 H       1  UNL1        0.1507
     46 H           2.4522   -3.6237    0.7403 H       1  UNL1        0.2123
@<TRIPOS>BOND
     1     1     2    1
     2     2     3    1
     3     3     4    1
     4     4     5    2
     5     4     6    1
     6     6     7    1
     7     7     8    1
     8     8     9   ar
     9     9    10   ar
    10    10    11   ar
    11    11    12    1
    12    11    13   ar
    13    13    14    1
    14    14    15    1
    15    15    16    1
    16    13    17   ar
    17     8    17   ar
    18     7    18    1
    19    18    19    1
    20    19    20    2
    21    19    21    1
    22    21    22    1
    23     6    22    1
    24    24    25    1
    25    24    26    1
    26    24    27    1
    27    22    24    1
    28    22    23    1
    29     1    28    1
    30     1    29    1
    31     1    30    1
    32     2    31    1
    33     2    32    1
    34     6    33    1
    35     7    34    1
    36     9    35    1
    37    10    36    1
    38    12    37    1
    39    15    38    1
    40    15    39    1
    41    16    40    1
    42    16    41    1
    43    16    42    1
    44    17    43    1
    45    18    44    1
    46    21    45    1
    47    23    46    1
