REMARK  7 active torsions:
REMARK  status: ('A' for Active; 'I' for Inactive)
REMARK    1  A    between atoms: C_2  and  CA_3 
REMARK    2  A    between atoms: CA_3  and  C_4 
REMARK    3  A    between atoms: CA_3  and  N_6 
REMARK    4  A    between atoms: C_4  and  O_5 
REMARK       I    between atoms: N_6  and  C_7 
REMARK    5  A    between atoms: C_7  and  C_9 
REMARK       I    between atoms: C_9  and  N_11 
REMARK    6  A    between atoms: N_11  and  C_12 
REMARK    7  A    between atoms: C_14  and  C_15 
REMARK       I    between atoms: C_15  and  N_17 
ROOT
ATOM      1  C   UNL d   1       6.690   2.103  -1.632  0.00  0.00     0.314 C 
ATOM      2  O   UNL d   1       7.179   1.185  -0.978  0.00  0.00    -0.262 OA
ATOM      3  N   UNL d   1       7.385   3.116  -2.296  0.00  0.00    -0.318 N 
ATOM      4  H   UNL d   1       6.844   3.918  -2.610  0.00  0.00     0.169 HD
ENDROOT
BRANCH   3   5
ATOM      5  C   UNL d   1       8.802   3.177  -2.347  0.00  0.00     0.042 A 
ATOM      6  C   UNL d   1       9.523   1.987  -2.536  0.00  0.00     0.047 A 
ATOM      7  C   UNL d   1      10.921   1.966  -2.572  0.00  0.00     0.034 A 
ATOM      8  C   UNL d   1      11.610   3.174  -2.411  0.00  0.00     0.017 A 
ATOM      9  C   UNL d   1      10.908   4.373  -2.238  0.00  0.00     0.010 A 
ATOM     10  C   UNL d   1       9.499   4.393  -2.220  0.00  0.00    -0.035 A 
ATOM     11  C   UNL d   1       8.798   5.697  -1.962  0.00  0.00     0.050 C 
BRANCH   7  12
ATOM     12  C   UNL d   1      11.708   0.703  -2.768  0.00  0.00     0.251 C 
ATOM     13  O   UNL d   1      12.936   0.749  -2.755  0.00  0.00    -0.268 OA
ATOM     14  N   UNL d   1      11.011  -0.476  -2.960  0.00  0.00    -0.361 N 
ATOM     15  C   UNL d   1      11.676  -1.747  -3.135  0.00  0.00     0.149 C 
ATOM     16  H   UNL d   1      10.004  -0.498  -2.956  0.00  0.00     0.162 HD
ENDBRANCH   7  12
ENDBRANCH   3   5
BRANCH   1  17
ATOM     17  C   UNL d   1       5.148   2.204  -1.699  0.00  0.00     0.310 C 
ATOM     18  N   UNL d   1       4.445   1.254  -0.962  0.00  0.00    -0.346 N 
ATOM     19  H   UNL d   1       5.000   0.572  -0.447  0.00  0.00     0.163 HD
ATOM     20  O   UNL d   1       4.639   3.099  -2.369  0.00  0.00    -0.262 OA
BRANCH  18  21
ATOM     21  CA  UNL d   1       2.971   1.230  -0.878  0.00  0.00     0.108 C 
BRANCH  21  22
ATOM     22  C   UNL d   1       2.450   0.018  -0.060  0.00  0.00     0.023 C 
ATOM     23  C   UNL d   1       0.925  -0.105  -0.026  0.00  0.00     0.007 C 
ENDBRANCH  21  22
BRANCH  21  24
ATOM     24  C   UNL d   1       2.437   2.568  -0.306  0.00  0.00     0.189 C 
BRANCH  24  25
ATOM     25  O   UNL d   1       1.024   2.713  -0.366  0.00  0.00    -0.399 OA
ATOM     26  H   UNL d   1       0.730   2.457  -1.257  0.00  0.00     0.209 HD
ENDBRANCH  24  25
ENDBRANCH  21  24
ENDBRANCH  18  21
ENDBRANCH   1  17
TORSDOF 7
