REMARK  4 active torsions:
REMARK  status: ('A' for Active; 'I' for Inactive)
REMARK    1  A    between atoms: C_5  and  C_6 
REMARK       I    between atoms: C_6  and  N_8 
REMARK    2  A    between atoms: N_8  and  N_9 
REMARK       I    between atoms: N_9  and  C_10 
REMARK    3  A    between atoms: C_10  and  C_12 
REMARK    4  A    between atoms: C_17  and  O_18 
ROOT
ATOM      1  C   UNL d   1      -2.426  -2.018  -0.061  0.00  0.00     0.272 C 
ATOM      2  O   UNL d   1      -3.507  -1.425  -0.079  0.00  0.00    -0.266 OA
ATOM      3  N   UNL d   1      -2.348  -3.408  -0.086  0.00  0.00    -0.263 N 
ATOM      4  H   UNL d   1      -1.483  -3.942  -0.074  0.00  0.00     0.190 HD
ENDROOT
BRANCH   1   5
ATOM      5  C   UNL d   1      -1.147  -1.215  -0.020  0.00  0.00     0.066 A 
ATOM      6  C   UNL d   1       0.118  -1.825   0.001  0.00  0.00     0.020 A 
ATOM      7  C   UNL d   1       1.298  -1.058   0.019  0.00  0.00     0.008 A 
ATOM      8  C   UNL d   1       1.247   0.338   0.004  0.00  0.00    -0.059 A 
ATOM      9  C   UNL d   1       2.489   1.183  -0.001  0.00  0.00     0.048 C 
ATOM     10  C   UNL d   1      -0.006   0.957  -0.007  0.00  0.00     0.044 A 
ATOM     11  C   UNL d   1      -1.183   0.195  -0.011  0.00  0.00     0.082 A 
BRANCH  11  12
ATOM     12  O   UNL d   1      -2.339   0.933  -0.005  0.00  0.00    -0.360 OA
ATOM     13  H   UNL d   1      -3.100   0.315  -0.000  0.00  0.00     0.217 HD
ENDBRANCH  11  12
ENDBRANCH   1   5
BRANCH   3  14
ATOM     14  N   UNL d   1      -3.533  -4.193  -0.190  0.00  0.00    -0.263 N 
ATOM     15  C   UNL d   1      -3.433  -5.578  -0.133  0.00  0.00     0.272 C 
ATOM     16  O   UNL d   1      -2.343  -6.149  -0.024  0.00  0.00    -0.266 OA
ATOM     17  H   UNL d   1      -4.421  -3.699  -0.145  0.00  0.00     0.190 HD
BRANCH  15  18
ATOM     18  C   UNL d   1      -4.688  -6.316  -0.196  0.00  0.00     0.057 A 
ATOM     19  C   UNL d   1      -5.841  -6.105  -1.013  0.00  0.00     0.043 A 
ATOM     20  C   UNL d   1      -6.730  -7.115  -0.719  0.00  0.00     0.142 A 
ATOM     21  O   UNL d   1      -6.211  -7.937   0.226  0.00  0.00    -0.334 OA
ATOM     22  C   UNL d   1      -4.973  -7.463   0.524  0.00  0.00     0.158 A 
ENDBRANCH  15  18
ENDBRANCH   3  14
TORSDOF 4
