REMARK  7 active torsions:
REMARK  status: ('A' for Active; 'I' for Inactive)
REMARK    1  A    between atoms: O_2  and  C_3 
REMARK    2  A    between atoms: C_5  and  C_6 
REMARK    3  A    between atoms: C_6  and  N_7 
REMARK       I    between atoms: N_7  and  C_8 
REMARK    4  A    between atoms: C_8  and  C_10 
REMARK    5  A    between atoms: N_13  and  C_14 
REMARK    6  A    between atoms: C_27  and  O_28 
REMARK    7  A    between atoms: C_30  and  O_31 
ROOT
ATOM      1  C   UNL d   1       9.102  -5.189  -1.364  0.00  0.00     0.081 C 
ATOM      2  C   UNL d   1       8.304  -5.990  -2.417  0.00  0.00     0.034 C 
ATOM      3  C   UNL d   1       7.494  -7.193  -1.825  0.00  0.00     0.121 C 
ATOM      4  N   UNL d   1       8.461  -8.183  -0.852  0.00  0.00    -0.381 N 
ATOM      5  C   UNL d   1       9.019  -7.213   0.153  0.00  0.00     0.121 C 
ATOM      6  C   UNL d   1       9.901  -6.174  -0.498  0.00  0.00     0.034 C 
ENDROOT
BRANCH   1   7
ATOM      7  C   UNL d   1       8.365  -4.218  -0.407  0.00  0.00     0.222 C 
ATOM      8  N   UNL d   1       7.106  -3.820  -0.749  0.00  0.00    -0.356 N 
ATOM      9  H   UNL d   1       6.845  -3.912  -1.714  0.00  0.00     0.162 HD
ATOM     10  O   UNL d   1       8.891  -3.847   0.641  0.00  0.00    -0.273 OA
BRANCH   8  11
ATOM     11  C   UNL d   1       6.357  -2.856   0.068  0.00  0.00     0.161 C 
BRANCH  11  12
ATOM     12  C   UNL d   1       5.004  -2.485  -0.504  0.00  0.00    -0.035 C 
ATOM     13  C   UNL d   1       4.190  -1.533   0.148  0.00  0.00     0.048 C 
ATOM     14  C   UNL d   1       3.038  -0.970  -0.457  0.00  0.00     0.104 C 
ATOM     15  C   UNL d   1       2.690  -1.424  -1.749  0.00  0.00     0.135 C 
ATOM     16  C   UNL d   1       3.466  -2.427  -2.381  0.00  0.00     0.104 C 
ATOM     17  C   UNL d   1       4.570  -2.971  -1.737  0.00  0.00     0.048 C 
BRANCH  14  18
ATOM     18  O   UNL d   1       2.565   0.098   0.278  0.00  0.00    -0.353 OA
ATOM     19  C   UNL d   1       1.177   0.333   0.492  0.00  0.00     0.210 C 
ENDBRANCH  14  18
BRANCH  15  20
ATOM     20  O   UNL d   1       1.703  -1.018  -2.582  0.00  0.00    -0.351 OA
ATOM     21  C   UNL d   1       0.704  -0.172  -2.151  0.00  0.00     0.210 C 
ENDBRANCH  15  20
BRANCH  16  22
ATOM     22  O   UNL d   1       3.298  -2.953  -3.652  0.00  0.00    -0.353 OA
ATOM     23  C   UNL d   1       2.262  -2.407  -4.471  0.00  0.00     0.210 C 
ENDBRANCH  16  22
ENDBRANCH  11  12
ENDBRANCH   8  11
ENDBRANCH   1   7
BRANCH   4  24
ATOM     24  C   UNL d   1       7.989  -9.603  -0.394  0.00  0.00     0.263 C 
ATOM     25  N   UNL d   1       8.638 -11.062   0.273  0.00  0.00    -0.355 N 
ATOM     26  C   UNL d   1       7.708 -11.540   1.056  0.00  0.00     0.052 C 
ATOM     27  H   UNL d   1       9.610 -11.359   0.458  0.00  0.00     0.163 HD
ATOM     28  C   UNL d   1       7.233 -12.722   1.859  0.00  0.00     0.033 C 
ATOM     29  C   UNL d   1       6.766 -10.399   1.146  0.00  0.00     0.039 C 
ATOM     30  C   UNL d   1       5.879 -12.888   1.765  0.00  0.00     0.026 C 
ATOM     31  C   UNL d   1       5.013 -11.943   1.053  0.00  0.00     0.035 C 
ATOM     32 CL   UNL d   1       3.361 -12.292   0.757  0.00  0.00    -0.084 Cl
ATOM     33  C   UNL d   1       5.426 -10.733   0.697  0.00  0.00     0.049 C 
ATOM     34  N   UNL d   1       7.338  -9.327   0.910  0.00  0.00    -0.253 NA
ATOM     35  H   UNL d   1       8.291  -9.134   1.317  0.00  0.00     0.131 HD
ENDBRANCH   4  24
TORSDOF 7
