@<TRIPOS>MOLECULE
*****
 38 39 0 0 0
SMALL
GASTEIGER

@<TRIPOS>ATOM
      1 C          -6.5838    2.5325    0.8153 C.3     1  UNL1       -0.0396
      2 C          -6.3084    1.0578    0.7900 C.ar    1  UNL1       -0.0470
      3 C          -5.4716    0.4817   -0.1680 C.ar    1  UNL1       -0.0579
      4 C          -5.2497   -0.9026   -0.1826 C.ar    1  UNL1       -0.0458
      5 C          -5.8513   -1.7425    0.7673 C.ar    1  UNL1        0.0795
      6 C          -5.6286   -3.2229    0.7520 C.2     1  UNL1        0.2637
      7 O          -6.1673   -3.9282    1.6161 O.2     1  UNL1       -0.2685
      8 N          -4.8182   -3.7636   -0.2333 N.am    1  UNL1       -0.2303
      9 N          -4.5528   -5.1401   -0.2088 N.am    1  UNL1       -0.2341
     10 C          -3.7569   -5.6926   -1.1861 C.2     1  UNL1        0.2296
     11 O          -3.2387   -4.9997   -2.0682 O.2     1  UNL1       -0.2743
     12 C          -3.5364   -7.2010   -1.1517 C.3     1  UNL1        0.0316
     13 C          -4.4973   -8.0233   -0.2810 C.3     1  UNL1       -0.0143
     14 C          -4.0742   -8.5153    1.0780 C.2     1  UNL1       -0.0844
     15 C          -4.1436   -9.8488    1.1720 C.2     1  UNL1       -0.0876
     16 C          -4.4658  -10.4892   -0.1309 C.3     1  UNL1       -0.0342
     17 C          -4.8856   -9.3201   -1.0092 C.3     1  UNL1       -0.0429
     18 C          -6.6733   -1.1486    1.7429 C.ar    1  UNL1        0.1292
     19 O          -7.3004   -1.8416    2.7464 O.3     1  UNL1       -0.5060
     20 C          -6.9032    0.2309    1.7475 C.ar    1  UNL1       -0.0165
     21 H          -6.0625    3.0600    0.0101 H       1  UNL1        0.0278
     22 H          -6.2548    2.9595    1.7683 H       1  UNL1        0.0278
     23 H          -7.6573    2.7140    0.6960 H       1  UNL1        0.0278
     24 H          -4.9829    1.1007   -0.9182 H       1  UNL1        0.0620
     25 H          -4.5960   -1.2866   -0.9568 H       1  UNL1        0.0626
     26 H          -4.3465   -3.2469   -0.9719 H       1  UNL1        0.1731
     27 H          -5.0194   -5.6604    0.5295 H       1  UNL1        0.1728
     28 H          -2.4820   -7.4239   -0.9508 H       1  UNL1        0.0365
     29 H          -3.7100   -7.4875   -2.2010 H       1  UNL1        0.0365
     30 H          -5.4188   -7.4605   -0.1146 H       1  UNL1        0.0348
     31 H          -3.8940   -7.8806    1.9387 H       1  UNL1        0.0572
     32 H          -4.0064  -10.4186    2.0833 H       1  UNL1        0.0569
     33 H          -5.2711  -11.2240   -0.0594 H       1  UNL1        0.0307
     34 H          -3.5723  -10.9791   -0.5324 H       1  UNL1        0.0307
     35 H          -5.9704   -9.3129   -1.1674 H       1  UNL1        0.0274
     36 H          -4.4270   -9.4217   -1.9979 H       1  UNL1        0.0274
     37 H          -7.0681   -2.7908    2.6604 H       1  UNL1        0.2922
     38 H          -7.5534    0.6623    2.5063 H       1  UNL1        0.0657
@<TRIPOS>BOND
     1     1     2    1
     2     2     3   ar
     3     3     4   ar
     4     4     5   ar
     5     5     6    1
     6     6     7    2
     7     6     8   am
     8     8     9    1
     9     9    10   am
    10    10    11    2
    11    10    12    1
    12    13    14    1
    13    14    15    2
    14    15    16    1
    15    16    17    1
    16    13    17    1
    17     5    18   ar
    18    18    19    1
    19    18    20   ar
    20     2    20   ar
    21    13    12    1
    22     1    21    1
    23     1    22    1
    24     1    23    1
    25     3    24    1
    26     4    25    1
    27     8    26    1
    28     9    27    1
    29    12    28    1
    30    12    29    1
    31    13    30    1
    32    14    31    1
    33    15    32    1
    34    16    33    1
    35    16    34    1
    36    17    35    1
    37    17    36    1
    38    19    37    1
    39    20    38    1
