REMARK  5 active torsions:
REMARK  status: ('A' for Active; 'I' for Inactive)
REMARK    1  A    between atoms: C_2  and  C_12 
REMARK    2  A    between atoms: C_2  and  O_3 
REMARK    3  A    between atoms: O_3  and  C_4 
REMARK       I    between atoms: C_12  and  N_14 
REMARK    4  A    between atoms: N_14  and  C_15 
REMARK    5  A    between atoms: N_19  and  C_20 
ROOT
ATOM      1  C   UNL d   1       4.879   2.320   2.015  0.00  0.00     0.059 A 
ATOM      2  C   UNL d   1       6.025   3.081   1.621  0.00  0.00     0.067 A 
ATOM      3  C   UNL d   1       6.497   4.045   2.569  0.00  0.00     0.112 A 
ATOM      4  N   UNL d   1       7.498   4.953   2.502  0.00  0.00    -0.147 NA
ATOM      5  N   UNL d   1       7.530   5.473   3.766  0.00  0.00    -0.150 N 
ATOM      6  N   UNL d   1       6.581   5.033   4.620  0.00  0.00    -0.147 NA
ATOM      7  C   UNL d   1       5.862   4.187   3.875  0.00  0.00     0.111 A 
ATOM      8  C   UNL d   1       4.719   3.472   4.245  0.00  0.00     0.062 A 
ATOM      9  C   UNL d   1       4.270   2.523   3.308  0.00  0.00     0.063 A 
ATOM     10 CL   UNL d   1       3.061   1.446   3.965  0.00  0.00    -0.082 Cl
ENDROOT
BRANCH   1  11
ATOM     11  N   UNL d   1       4.364   1.321   1.112  0.00  0.00    -0.323 N 
ATOM     12  C   UNL d   1       2.997   1.187   0.889  0.00  0.00     0.251 C 
ATOM     13  O   UNL d   1       2.190   2.010   1.350  0.00  0.00    -0.270 OA
ATOM     14  H   UNL d   1       5.012   0.869   0.477  0.00  0.00     0.169 HD
BRANCH  12  15
ATOM     15  C   UNL d   1       2.492   0.014  -0.011  0.00  0.00     0.217 C 
ATOM     16  C   UNL d   1       3.121  -0.053  -1.411  0.00  0.00     0.050 C 
BRANCH  15  17
ATOM     17  O   UNL d   1       1.048  -0.056  -0.099  0.00  0.00    -0.335 OA
BRANCH  17  18
ATOM     18  C   UNL d   1       0.359   0.994  -0.665  0.00  0.00     0.091 A 
ATOM     19  C   UNL d   1       0.994   2.120  -1.202  0.00  0.00     0.040 A 
ATOM     20  C   UNL d   1       0.306   3.129  -1.852  0.00  0.00     0.026 A 
ATOM     21  C   UNL d   1      -1.072   3.078  -1.896  0.00  0.00     0.035 A 
ATOM     22 CL   UNL d   1      -1.913   4.376  -2.641  0.00  0.00    -0.084 Cl
ATOM     23  C   UNL d   1      -1.755   2.010  -1.315  0.00  0.00     0.050 A 
ATOM     24  C   UNL d   1      -1.042   0.960  -0.714  0.00  0.00     0.069 A 
ATOM     25 CL   UNL d   1      -1.948  -0.341  -0.024  0.00  0.00    -0.081 Cl
ENDBRANCH  17  18
ENDBRANCH  15  17
ENDBRANCH  12  15
ENDBRANCH   1  11
BRANCH   5  26
ATOM     26  C   UNL d   1       8.475   6.443   4.211  0.00  0.00     0.079 A 
ATOM     27  C   UNL d   1       9.121   6.260   5.447  0.00  0.00     0.033 A 
ATOM     28  C   UNL d   1       9.924   7.273   5.985  0.00  0.00     0.002 A 
ATOM     29  C   UNL d   1      10.120   8.456   5.276  0.00  0.00     0.000 A 
ATOM     30  C   UNL d   1       9.537   8.613   4.016  0.00  0.00     0.002 A 
ATOM     31  C   UNL d   1       8.694   7.621   3.489  0.00  0.00     0.033 A 
ENDBRANCH   5  26
TORSDOF 5
