@<TRIPOS>MOLECULE
*****
 47 49 0 0 0
SMALL
GASTEIGER

@<TRIPOS>ATOM
      1 C           2.2650    0.0913    0.0037 C.3     1  UNL1       -0.0183
      2 C           0.8001   -0.1327    0.0033 C.ar    1  UNL1        0.0929
      3 N          -0.0072    0.9329    0.0022 N.ar    1  UNL1       -0.0826
      4 O          -1.2871    0.4317    0.0039 O.2     1  UNL1       -0.3584
      5 C          -1.2556   -0.9317   -0.0083 C.ar    1  UNL1        0.1521
      6 C          -2.6100   -1.5825   -0.0223 C.3     1  UNL1        0.0150
      7 C          -3.3969   -1.2332   -1.2803 C.3     1  UNL1       -0.0557
      8 C          -2.5087   -3.0894    0.0158 C.3     1  UNL1       -0.0557
      9 C           0.0667   -1.3687    0.0070 C.ar    1  UNL1        0.1015
     10 C           0.5407   -2.7551    0.0249 C.2     1  UNL1        0.2495
     11 O          -0.1479   -3.7754    0.0392 O.2     1  UNL1       -0.2700
     12 N           1.8688   -2.9786    0.0305 N.am    1  UNL1       -0.3071
     13 C           2.3562   -4.3390    0.0461 C.3     1  UNL1        0.0372
     14 C           3.8497   -4.4127    0.0499 C.ar    1  UNL1       -0.0296
     15 C           4.6413   -3.2560    0.0641 C.ar    1  UNL1       -0.0551
     16 C           6.0185   -3.2966    0.0286 C.ar    1  UNL1       -0.0375
     17 C           6.5948   -4.5518   -0.0078 C.ar    1  UNL1        0.0469
     18 N           7.9192   -4.8728   -0.0622 N.ar    1  UNL1       -0.3579
     19 C           8.0769   -6.2286   -0.0696 C.ar    1  UNL1        0.0168
     20 C           9.4272   -6.8256   -0.1299 C.3     1  UNL1       -0.0242
     21 C           6.8195   -6.8078   -0.0202 C.ar    1  UNL1       -0.0225
     22 C           6.5004   -8.2585   -0.0043 C.3     1  UNL1       -0.0375
     23 C           5.8710   -5.7403    0.0043 C.ar    1  UNL1        0.0031
     24 C           4.4657   -5.6750    0.0333 C.ar    1  UNL1       -0.0476
     25 H           2.5414    1.1491   -0.0084 H       1  UNL1        0.0294
     26 H           2.7097   -0.3717   -0.8840 H       1  UNL1        0.0294
     27 H           2.7054   -0.3534    0.9026 H       1  UNL1        0.0294
     28 H          -3.1663   -1.2588    0.8659 H       1  UNL1        0.0375
     29 H          -2.8134   -1.4526   -2.1824 H       1  UNL1        0.0236
     30 H          -3.6795   -0.1784   -1.3018 H       1  UNL1        0.0236
     31 H          -4.3136   -1.8331   -1.3243 H       1  UNL1        0.0236
     32 H          -1.9773   -3.4122   -0.8913 H       1  UNL1        0.0236
     33 H          -3.4517   -3.6287    0.0008 H       1  UNL1        0.0236
     34 H          -2.0035   -3.3802    0.9437 H       1  UNL1        0.0236
     35 H           2.4879   -2.2055   -0.0160 H       1  UNL1        0.1493
     36 H           1.9548   -4.8540   -0.8386 H       1  UNL1        0.0512
     37 H           1.9488   -4.8392    0.9357 H       1  UNL1        0.0512
     38 H           4.2327   -2.2582    0.1008 H       1  UNL1        0.0621
     39 H           6.5936   -2.3796    0.0285 H       1  UNL1        0.0638
     40 H           8.6602   -4.1878   -0.0970 H       1  UNL1        0.1656
     41 H          10.2012   -6.0514   -0.1558 H       1  UNL1        0.0292
     42 H           9.5241   -7.4354   -1.0319 H       1  UNL1        0.0292
     43 H           9.5999   -7.4527    0.7484 H       1  UNL1        0.0292
     44 H           7.4098   -8.8662   -0.0161 H       1  UNL1        0.0278
     45 H           5.9014   -8.5260   -0.8804 H       1  UNL1        0.0278
     46 H           5.9339   -8.5152    0.8967 H       1  UNL1        0.0278
     47 H           3.8745   -6.5891    0.0357 H       1  UNL1        0.0627
@<TRIPOS>BOND
     1     1     2    1
     2     2     3   ar
     3     3     4   ar
     4     4     5   ar
     5     5     6    1
     6     6     7    1
     7     6     8    1
     8     5     9   ar
     9     2     9   ar
    10     9    10    1
    11    10    11    2
    12    10    12   am
    13    12    13    1
    14    13    14    1
    15    14    15   ar
    16    15    16   ar
    17    16    17   ar
    18    17    18   ar
    19    18    19   ar
    20    19    20    1
    21    19    21   ar
    22    21    22    1
    23    21    23   ar
    24    17    23   ar
    25    23    24   ar
    26    14    24   ar
    27     1    25    1
    28     1    26    1
    29     1    27    1
    30     6    28    1
    31     7    29    1
    32     7    30    1
    33     7    31    1
    34     8    32    1
    35     8    33    1
    36     8    34    1
    37    12    35    1
    38    13    36    1
    39    13    37    1
    40    15    38    1
    41    16    39    1
    42    18    40    1
    43    20    41    1
    44    20    42    1
    45    20    43    1
    46    22    44    1
    47    22    45    1
    48    22    46    1
    49    24    47    1
