@<TRIPOS>MOLECULE
*****
 40 40 0 0 0
SMALL
GASTEIGER

@<TRIPOS>ATOM
      1 C           1.0850    0.0458   -0.0319 C.3     1  UNL1       -0.0627
      2 C           2.6152    0.0313   -0.0077 C.3     1  UNL1       -0.0463
      3 C           3.0982   -0.3935    1.3781 C.3     1  UNL1       -0.0627
      4 C           3.1466   -0.9089   -1.0985 C.3     1  UNL1       -0.0424
      5 C           4.6758   -0.9538   -1.1743 C.3     1  UNL1        0.0254
      6 C           5.1352   -1.8794   -2.2788 C.2     1  UNL1        0.2265
      7 O           4.3545   -2.5166   -2.9899 O.2     1  UNL1       -0.2745
      8 N           6.5168   -1.9140   -2.4283 N.am    1  UNL1       -0.2499
      9 N           7.0435   -2.8780   -3.3186 N.3     1  UNL1       -0.2243
     10 C           8.5181   -2.9367   -3.3622 C.3     1  UNL1        0.1256
     11 C           9.0700   -3.3645   -1.9613 C.2     1  UNL1        0.2335
     12 N           9.8887   -4.4592   -1.8742 N.am    1  UNL1       -0.3277
     13 O           8.8033   -2.7368   -0.9316 O.2     1  UNL1       -0.2739
     14 C           8.9409   -3.8819   -4.4771 C.ar    1  UNL1       -0.0202
     15 C           8.4868   -5.2145   -4.4664 C.ar    1  UNL1       -0.0566
     16 C           8.9831   -6.1396   -5.3752 C.ar    1  UNL1       -0.0614
     17 C           9.8456   -5.7183   -6.3823 C.ar    1  UNL1       -0.0617
     18 C          10.2657   -4.3883   -6.4383 C.ar    1  UNL1       -0.0614
     19 C           9.8320   -3.4734   -5.4779 C.ar    1  UNL1       -0.0566
     20 H           0.6917    0.7286    0.7285 H       1  UNL1        0.0232
     21 H           0.6785   -0.9519    0.1682 H       1  UNL1        0.0232
     22 H           0.7086    0.3747   -1.0062 H       1  UNL1        0.0232
     23 H           2.9721    1.0488   -0.2116 H       1  UNL1        0.0296
     24 H           2.7704   -1.4134    1.6067 H       1  UNL1        0.0232
     25 H           2.7070    0.2755    2.1500 H       1  UNL1        0.0232
     26 H           4.1888   -0.3632    1.4512 H       1  UNL1        0.0232
     27 H           2.7501   -0.5903   -2.0723 H       1  UNL1        0.0272
     28 H           2.7600   -1.9228   -0.9288 H       1  UNL1        0.0272
     29 H           5.1033   -1.3219   -0.2360 H       1  UNL1        0.0359
     30 H           5.0696    0.0509   -1.3660 H       1  UNL1        0.0359
     31 H           7.1083   -1.5762   -1.6635 H       1  UNL1        0.1690
     32 H           6.6800   -2.6612   -4.2519 H       1  UNL1        0.1454
     33 H           8.9172   -1.9344   -3.5661 H       1  UNL1        0.0622
     34 H          10.1309   -5.0382   -2.6688 H       1  UNL1        0.1450
     35 H          10.1816   -4.7749   -0.9606 H       1  UNL1        0.1450
     36 H           7.7772   -5.5384   -3.7044 H       1  UNL1        0.0621
     37 H           8.6986   -7.1845   -5.2898 H       1  UNL1        0.0618
     38 H          10.1844   -6.4295   -7.1303 H       1  UNL1        0.0618
     39 H          10.9454   -4.0701   -7.2249 H       1  UNL1        0.0618
     40 H          10.1968   -2.4488   -5.5176 H       1  UNL1        0.0621
@<TRIPOS>BOND
     1     1     2    1
     2     2     3    1
     3     2     4    1
     4     4     5    1
     5     5     6    1
     6     6     7    2
     7     6     8   am
     8     8     9    1
     9     9    10    1
    10    10    11    1
    11    11    12   am
    12    11    13    2
    13    10    14    1
    14    14    15   ar
    15    15    16   ar
    16    16    17   ar
    17    17    18   ar
    18    18    19   ar
    19    14    19   ar
    20     1    20    1
    21     1    21    1
    22     1    22    1
    23     2    23    1
    24     3    24    1
    25     3    25    1
    26     3    26    1
    27     4    27    1
    28     4    28    1
    29     5    29    1
    30     5    30    1
    31     8    31    1
    32     9    32    1
    33    10    33    1
    34    12    34    1
    35    12    35    1
    36    15    36    1
    37    16    37    1
    38    17    38    1
    39    18    39    1
    40    19    40    1
