REMARK  7 active torsions:
REMARK  status: ('A' for Active; 'I' for Inactive)
REMARK    1  A    between atoms: O_2  and  C_3 
REMARK       I    between atoms: C_3  and  N_5 
REMARK    2  A    between atoms: C_6  and  N_5 
REMARK    3  A    between atoms: C_6  and  C_14 
REMARK    4  A    between atoms: C_6  and  C_7 
REMARK    5  A    between atoms: C_7  and  C_8 
REMARK       I    between atoms: C_14  and  N_16 
REMARK    6  A    between atoms: N_16  and  C_17 
REMARK    7  A    between atoms: C_21  and  N_22 
ROOT
ATOM      1  C   UNL d   1       6.927   0.305  -2.137  0.00  0.00     0.245 C 
ATOM      2  O   UNL d   1       7.289   0.094  -0.945  0.00  0.00    -0.271 OA
ATOM      3  N   UNL d   1       7.834   0.394  -3.196  0.00  0.00    -0.325 N 
ATOM      4  H   UNL d   1       7.491   0.726  -4.098  0.00  0.00     0.169 HD
ENDROOT
BRANCH   1   5
ATOM      5  C   UNL d   1       5.434   0.472  -2.481  0.00  0.00     0.183 C 
BRANCH   5   6
ATOM      6  C   UNL d   1       4.362   0.197  -1.171  0.00  0.00     0.073 C 
BRANCH   6   7
ATOM      7  C   UNL d   1       3.227   1.223  -0.700  0.00  0.00    -0.056 C 
ATOM      8  C   UNL d   1       3.060   2.334  -1.505  0.00  0.00     0.007 C 
ATOM      9  C   UNL d   1       2.692   3.673  -1.197  0.00  0.00     0.001 C 
ATOM     10  C   UNL d   1       2.282   3.913   0.087  0.00  0.00     0.000 C 
ATOM     11  C   UNL d   1       2.279   2.798   0.957  0.00  0.00     0.001 C 
ATOM     12  C   UNL d   1       2.742   1.465   0.578  0.00  0.00     0.007 C 
ENDBRANCH   6   7
ENDBRANCH   5   6
BRANCH   5  13
ATOM     13  N   UNL d   1       5.439   1.747  -3.294  0.00  0.00    -0.323 N 
ATOM     14  C   UNL d   1       5.486   3.062  -2.776  0.00  0.00     0.360 C 
ATOM     15  O   UNL d   1       4.874   3.949  -3.442  0.00  0.00    -0.239 OA
ATOM     16  H   UNL d   1       5.098   1.669  -4.252  0.00  0.00     0.165 HD
BRANCH  14  17
ATOM     17  O   UNL d   1       5.981   3.190  -1.487  0.00  0.00    -0.309 OA
ATOM     18  C   UNL d   1       5.395   3.636  -0.161  0.00  0.00     0.215 C 
ENDBRANCH  14  17
ENDBRANCH   5  13
ENDBRANCH   1   5
BRANCH   3  19
ATOM     19  C   UNL d   1       9.241   0.331  -3.016  0.00  0.00     0.038 A 
ATOM     20  C   UNL d   1      10.104   1.145  -3.751  0.00  0.00     0.055 A 
ATOM     21  C   UNL d   1      11.498   1.009  -3.602  0.00  0.00     0.059 A 
ATOM     22 CL   UNL d   1      12.527   1.924  -4.657  0.00  0.00    -0.082 Cl
ATOM     23  C   UNL d   1      12.064   0.130  -2.657  0.00  0.00     0.050 A 
ATOM     24  C   UNL d   1      11.174  -0.712  -1.972  0.00  0.00     0.059 A 
ATOM     25 CL   UNL d   1      11.763  -1.956  -0.920  0.00  0.00    -0.082 Cl
ATOM     26  C   UNL d   1       9.789  -0.602  -2.133  0.00  0.00     0.055 A 
BRANCH  23  27
ATOM     27  N   UNL d   1      13.459  -0.064  -2.571  0.00  0.00    -0.300 NA
ATOM     28  H   UNL d   1      14.023   0.730  -2.866  0.00  0.00     0.124 HD
ATOM     29  H   UNL d   1      13.775  -0.506  -1.710  0.00  0.00     0.124 HD
ENDBRANCH  23  27
ENDBRANCH   3  19
TORSDOF 7
