@<TRIPOS>MOLECULE
*****
 60 63 0 0 0
SMALL
GASTEIGER

@<TRIPOS>ATOM
      1 C           1.0169    0.0569   -0.0114 C.3     1  UNL1        0.0788
      2 O           2.4324    0.1398    0.0653 O.3     1  UNL1       -0.4950
      3 C           3.0900   -0.9281    0.6137 C.ar    1  UNL1        0.1243
      4 C           4.3053   -0.6240    1.2405 C.ar    1  UNL1        0.0218
      5 C           5.1677   -1.6411    1.6579 C.ar    1  UNL1        0.1243
      6 O           6.4014   -1.2478    2.1061 O.3     1  UNL1       -0.4950
      7 C           7.3566   -2.2930    2.3039 C.3     1  UNL1        0.0788
      8 C           4.7557   -2.9659    1.5471 C.ar    1  UNL1       -0.0061
      9 C           3.5401   -3.2835    0.9295 C.ar    1  UNL1        0.0630
     10 C           3.2279   -4.7308    0.7139 C.2     1  UNL1        0.3408
     11 O           4.0104   -5.5720    1.1265 O.2     1  UNL1       -0.2483
     12 N           2.0649   -4.9994    0.0221 N.am    1  UNL1        0.0006
     13 C           1.7058   -6.2392   -0.1530 C.2     1  UNL1        0.3842
     14 N           0.5388   -6.4959   -0.8256 N.pl3   1  UNL1       -0.2767
     15 C          -0.3604   -5.4661   -1.2806 C.3     1  UNL1        0.0684
     16 C          -1.5759   -6.0797   -1.9496 C.3     1  UNL1        0.0059
     17 C          -2.6099   -5.1242   -2.4569 C.2     1  UNL1        0.0106
     18 C          -3.6783   -5.5768   -3.1113 C.ar    1  UNL1        0.0510
     19 C          -4.0579   -6.8978   -3.4591 C.ar    1  UNL1       -0.0482
     20 C          -5.0954   -7.0564   -4.2853 C.ar    1  UNL1       -0.0608
     21 C          -5.9087   -5.9227   -4.6967 C.ar    1  UNL1       -0.0555
     22 C          -5.6501   -4.6435   -4.3479 C.ar    1  UNL1        0.0098
     23 C          -4.4530   -4.3998   -3.5138 C.ar    1  UNL1        0.2086
     24 N          -3.9293   -3.3202   -3.0680 N.2     1  UNL1       -0.2369
     25 C          -2.6363   -3.6238   -2.3760 C.3     1  UNL1        0.1661
     26 N           2.3577   -7.3490    0.3260 N.pl3   1  UNL1       -0.2450
     27 C           2.2200   -8.7100    0.0055 C.ar    1  UNL1        0.1000
     28 C           2.4430   -9.6790    0.9976 C.ar    1  UNL1       -0.0205
     29 C           2.2655  -11.0373    0.7161 C.ar    1  UNL1       -0.0232
     30 C           1.7925  -11.4206   -0.5326 C.ar    1  UNL1        0.1236
     31 F           1.5356  -12.7106   -0.7793 F       1  UNL1       -0.2055
     32 C           1.5695  -10.4820   -1.5284 C.ar    1  UNL1       -0.0232
     33 C           1.8161   -9.1376   -1.2656 C.ar    1  UNL1       -0.0205
     34 C           2.7054   -2.2610    0.4616 C.ar    1  UNL1       -0.0061
     35 H           0.6633    0.9255   -0.5771 H       1  UNL1        0.0660
     36 H           0.5873    0.1068    0.9927 H       1  UNL1        0.0660
     37 H           0.6603   -0.8290   -0.5449 H       1  UNL1        0.0660
     38 H           4.5931    0.4171    1.3775 H       1  UNL1        0.0691
     39 H           8.3292   -1.8424    2.5206 H       1  UNL1        0.0660
     40 H           7.4778   -2.9156    1.4078 H       1  UNL1        0.0660
     41 H           7.0699   -2.9039    3.1658 H       1  UNL1        0.0660
     42 H           5.3828   -3.7750    1.9076 H       1  UNL1        0.0662
     43 H           0.1928   -7.4469   -0.7893 H       1  UNL1        0.2577
     44 H           0.1571   -4.8269   -2.0024 H       1  UNL1        0.0658
     45 H          -0.6917   -4.8594   -0.4332 H       1  UNL1        0.0658
     46 H          -2.0696   -6.7642   -1.2440 H       1  UNL1        0.0343
     47 H          -1.2406   -6.7066   -2.7905 H       1  UNL1        0.0343
     48 H          -3.4791   -7.7386   -3.0931 H       1  UNL1        0.0626
     49 H          -5.3379   -8.0509   -4.6499 H       1  UNL1        0.0618
     50 H          -6.7803   -6.1795   -5.2963 H       1  UNL1        0.0620
     51 H          -6.2929   -3.8385   -4.6841 H       1  UNL1        0.0683
     52 H          -4.3671   -2.4072   -3.1897 H       1  UNL1        0.4459
     53 H          -2.6775   -3.2485   -1.3502 H       1  UNL1        0.1077
     54 H          -1.8244   -3.1503   -2.9391 H       1  UNL1        0.1077
     55 H           3.2450   -7.1370    0.7933 H       1  UNL1        0.2646
     56 H           2.7282   -9.3839    2.0065 H       1  UNL1        0.0653
     57 H           2.4811  -11.7959    1.4625 H       1  UNL1        0.0647
     58 H           1.2194  -10.7961   -2.5052 H       1  UNL1        0.0647
     59 H           1.6972   -8.4172   -2.0703 H       1  UNL1        0.0653
     60 H           1.7943   -2.5280   -0.0578 H       1  UNL1        0.0662
@<TRIPOS>UNITY_ATOM_ATTR
24 1
charge 1
@<TRIPOS>BOND
     1     1     2    1
     2     2     3    1
     3     3     4   ar
     4     4     5   ar
     5     5     6    1
     6     6     7    1
     7     5     8   ar
     8     8     9   ar
     9     9    10    1
    10    10    11    2
    11    10    12    1
    12    12    13    2
    13    13    14    1
    14    14    15    1
    15    15    16    1
    16    16    17    1
    17    17    18    2
    18    18    19   ar
    19    19    20   ar
    20    20    21   ar
    21    21    22   ar
    22    22    23   ar
    23    18    23   ar
    24    23    24    2
    25    24    25    1
    26    17    25    1
    27    13    26    1
    28    26    27    1
    29    27    28   ar
    30    28    29   ar
    31    29    30   ar
    32    30    31    1
    33    30    32   ar
    34    32    33   ar
    35    27    33   ar
    36     9    34   ar
    37     3    34   ar
    38     1    35    1
    39     1    36    1
    40     1    37    1
    41     4    38    1
    42     7    39    1
    43     7    40    1
    44     7    41    1
    45     8    42    1
    46    14    43    1
    47    15    44    1
    48    15    45    1
    49    16    46    1
    50    16    47    1
    51    19    48    1
    52    20    49    1
    53    21    50    1
    54    22    51    1
    55    24    52    1
    56    25    53    1
    57    25    54    1
    58    26    55    1
    59    28    56    1
    60    29    57    1
    61    32    58    1
    62    33    59    1
    63    34    60    1
