REMARK  11 active torsions:
REMARK  status: ('A' for Active; 'I' for Inactive)
REMARK    1  A    between atoms: C_2  and  N_5 
REMARK       I    between atoms: N_5  and  C_6 
REMARK    2  A    between atoms: C_6  and  C_8 
REMARK    3  A    between atoms: C_8  and  C_9 
REMARK    4  A    between atoms: C_8  and  N_18 
REMARK    5  A    between atoms: C_10  and  O_11 
REMARK    6  A    between atoms: C_13  and  O_14 
REMARK    7  A    between atoms: C_16  and  O_17 
REMARK    8  A    between atoms: N_18  and  C_19 
REMARK       I    between atoms: N_18  and  C_25 
REMARK    9  A    between atoms: C_19  and  C_20 
REMARK   10  A    between atoms: C_25  and  C_27 
REMARK   11  A    between atoms: C_29  and  N_30 
ROOT
ATOM      1  C   UNL d   1       5.026  -1.933   2.430  0.00  0.00     0.218 C 
ENDROOT
BRANCH   1   2
ATOM      2  C   UNL d   1       4.285  -0.673   1.767  0.00  0.00     0.246 C 
ATOM      3  N   UNL d   1       3.008  -0.756   1.224  0.00  0.00    -0.351 N 
ATOM      4  H   UNL d   1       2.324  -0.956   1.958  0.00  0.00     0.163 HD
ATOM      5  O   UNL d   1       4.777   0.468   1.879  0.00  0.00    -0.271 OA
BRANCH   3   6
ATOM      6  C   UNL d   1       2.459   0.042   0.073  0.00  0.00     0.022 C 
ATOM      7  C   UNL d   1       0.923   0.050   0.083  0.00  0.00     0.037 C 
ATOM      8  C   UNL d   1       2.710  -0.700  -1.271  0.00  0.00     0.037 C 
ATOM      9  C   UNL d   1       2.878   1.517   0.160  0.00  0.00     0.037 C 
ENDBRANCH   3   6
ENDBRANCH   1   2
BRANCH   1  10
ATOM     10  C   UNL d   1       4.525  -3.406   2.124  0.00  0.00     0.040 A 
ATOM     11  C   UNL d   1       3.268  -3.765   1.602  0.00  0.00     0.080 A 
ATOM     12  C   UNL d   1       2.847  -5.082   1.383  0.00  0.00     0.073 A 
ATOM     13  C   UNL d   1       3.624  -6.134   1.792  0.00  0.00     0.071 A 
ATOM     14  C   UNL d   1       4.818  -5.880   2.396  0.00  0.00     0.073 A 
ATOM     15  C   UNL d   1       5.275  -4.561   2.487  0.00  0.00     0.080 A 
BRANCH  11  16
ATOM     16  O   UNL d   1       2.290  -2.932   1.171  0.00  0.00    -0.360 OA
ATOM     17  H   UNL d   1       2.777  -2.209   0.735  0.00  0.00     0.217 HD
ENDBRANCH  11  16
BRANCH  13  18
ATOM     18  O   UNL d   1       3.271  -7.422   1.565  0.00  0.00    -0.361 OA
ATOM     19  H   UNL d   1       2.446  -7.404   1.056  0.00  0.00     0.217 HD
ENDBRANCH  13  18
BRANCH  15  20
ATOM     20  O   UNL d   1       6.595  -4.579   2.812  0.00  0.00    -0.360 OA
ATOM     21  H   UNL d   1       6.649  -4.878   3.742  0.00  0.00     0.217 HD
ENDBRANCH  15  20
ENDBRANCH   1  10
BRANCH   1  22
ATOM     22  N   UNL d   1       6.543  -1.813   2.396  0.00  0.00    -0.324 N 
ATOM     23  C   UNL d   1       7.286  -2.296   3.538  0.00  0.00     0.259 C 
ATOM     24  O   UNL d   1       6.732  -2.756   4.547  0.00  0.00    -0.267 OA
BRANCH  22  25
ATOM     25  C   UNL d   1       7.318  -1.110   1.338  0.00  0.00     0.192 C 
BRANCH  25  26
ATOM     26  C   UNL d   1       6.669  -0.460   0.176  0.00  0.00     0.070 C 
ATOM     27  C   UNL d   1       5.892  -0.913  -0.855  0.00  0.00     0.036 C 
ATOM     28  C   UNL d   1       5.497   0.239  -1.594  0.00  0.00     0.027 C 
ATOM     29  C   UNL d   1       6.000   1.323  -0.924  0.00  0.00     0.142 C 
ATOM     30  O   UNL d   1       6.799   0.907   0.083  0.00  0.00    -0.325 OA
ENDBRANCH  25  26
ENDBRANCH  22  25
BRANCH  23  31
ATOM     31  C   UNL d   1       8.808  -2.440   3.474  0.00  0.00     0.084 C 
ATOM     32  C   UNL d   1       9.418  -3.732   3.553  0.00  0.00     0.057 C 
ATOM     33  C   UNL d   1      10.819  -3.850   3.539  0.00  0.00     0.104 C 
ATOM     34  C   UNL d   1      11.606  -2.715   3.422  0.00  0.00     0.040 C 
ATOM     35  C   UNL d   1      10.993  -1.469   3.355  0.00  0.00     0.058 C 
ATOM     36  C   UNL d   1       9.608  -1.267   3.462  0.00  0.00     0.187 C 
ATOM     37  O   UNL d   1       9.180  -0.075   3.598  0.00  0.00    -0.287 OA
BRANCH  33  38
ATOM     38  N   UNL d   1      11.498  -5.152   3.656  0.00  0.00    -0.116 N 
ATOM     39  O   UNL d   1      10.805  -6.175   3.749  0.00  0.00    -0.532 OA
ATOM     40  O   UNL d   1      12.743  -5.162   3.651  0.00  0.00    -0.532 OA
ENDBRANCH  33  38
ENDBRANCH  23  31
ENDBRANCH   1  22
TORSDOF 11
