@<TRIPOS>MOLECULE
*****
 64 65 0 0 0
SMALL
GASTEIGER

@<TRIPOS>ATOM
      1 C           0.8642   -0.1009    0.0168 C.3     1  UNL1       -0.0652
      2 C           2.3712   -0.0868   -0.0189 C.3     1  UNL1       -0.0545
      3 C           2.7967    0.8164   -1.1651 C.3     1  UNL1       -0.0376
      4 C           4.2795    0.7794   -1.2835 C.3     1  UNL1        0.0116
      5 N           4.7757    1.4266   -2.5091 N.am    1  UNL1       -0.3135
      6 C           6.0731    1.8459   -2.3619 C.2     1  UNL1        0.2383
      7 O           6.4977    1.4585   -1.2737 O.2     1  UNL1       -0.2734
      8 C           6.8756    2.8695   -3.3881 C.3     1  UNL1        0.1342
      9 C           6.3883    4.3566   -3.1315 C.ar    1  UNL1        0.0648
     10 C           7.1891    5.5118   -3.2938 C.ar    1  UNL1        0.1292
     11 O           8.5391    5.5175   -3.4706 O.3     1  UNL1       -0.5062
     12 C           6.7109    6.8202   -3.1892 C.ar    1  UNL1        0.0219
     13 C           5.4145    7.0356   -2.7939 C.ar    1  UNL1        0.1238
     14 O           4.9232    8.2866   -2.6066 O.3     1  UNL1       -0.5065
     15 C           4.5859    5.9647   -2.5650 C.ar    1  UNL1        0.0219
     16 C           5.0498    4.6620   -2.7835 C.ar    1  UNL1        0.1292
     17 O           4.0781    3.7125   -2.6610 O.3     1  UNL1       -0.5062
     18 N           8.4860    2.7689   -3.5554 N.am    1  UNL1       -0.2844
     19 C           9.4037    2.0662   -2.5976 C.3     1  UNL1        0.0156
     20 C           8.7088    1.2410   -1.5949 C.3     1  UNL1       -0.0400
     21 C           9.2569    0.3496   -0.5328 C.3     1  UNL1       -0.0639
     22 C           9.1247    3.2978   -4.7236 C.2     1  UNL1        0.2336
     23 O           8.4971    3.7234   -5.6923 O.2     1  UNL1       -0.2739
     24 C          10.6771    3.5307   -4.5921 C.3     1  UNL1        0.0886
     25 N          11.2029    4.4801   -5.5578 N.am    1  UNL1       -0.3027
     26 C          12.5689    4.6483   -5.7290 C.2     1  UNL1        0.2445
     27 O          13.4065    4.0518   -5.0880 O.2     1  UNL1       -0.2702
     28 C          12.9750    5.6240   -6.7829 C.ar    1  UNL1        0.0367
     29 C          14.0033    5.2979   -7.6791 C.ar    1  UNL1       -0.0496
     30 C          14.4318    6.2381   -8.6245 C.ar    1  UNL1       -0.0610
     31 C          13.8030    7.4805   -8.7079 C.ar    1  UNL1       -0.0617
     32 C          12.7876    7.8087   -7.8093 C.ar    1  UNL1       -0.0610
     33 C          12.3817    6.8879   -6.8398 C.ar    1  UNL1       -0.0496
     34 H           0.5044   -0.7644    0.8032 H       1  UNL1        0.0230
     35 H           0.4762   -0.4463   -0.9469 H       1  UNL1        0.0230
     36 H           0.4849    0.9100    0.1964 H       1  UNL1        0.0230
     37 H           2.7589   -1.1017   -0.1724 H       1  UNL1        0.0263
     38 H           2.7775    0.2667    0.9389 H       1  UNL1        0.0263
     39 H           2.4775    1.8494   -0.9738 H       1  UNL1        0.0280
     40 H           2.3645    0.4920   -2.1122 H       1  UNL1        0.0280
     41 H           4.6767   -0.2436   -1.2804 H       1  UNL1        0.0462
     42 H           4.6610    1.2697   -0.3664 H       1  UNL1        0.0462
     43 H           4.1895    2.1611   -2.8964 H       1  UNL1        0.1487
     44 H           6.5125    2.6068   -4.3936 H       1  UNL1        0.0650
     45 H           8.8087    4.6490   -3.1454 H       1  UNL1        0.2922
     46 H           7.3956    7.6413   -3.3762 H       1  UNL1        0.0691
     47 H           5.6329    8.9146   -2.8223 H       1  UNL1        0.2921
     48 H           3.5650    6.1481   -2.2484 H       1  UNL1        0.0691
     49 H           3.3692    4.0583   -2.0855 H       1  UNL1        0.2922
     50 H           9.9853    2.8285   -2.0724 H       1  UNL1        0.0465
     51 H          10.0688    1.4175   -3.1712 H       1  UNL1        0.0465
     52 H           8.0974    0.5627   -2.2071 H       1  UNL1        0.0278
     53 H           8.2440    2.0372   -1.0008 H       1  UNL1        0.0278
     54 H           9.8276   -0.4619   -0.9729 H       1  UNL1        0.0230
     55 H           8.3965   -0.0915    0.0017 H       1  UNL1        0.0230
     56 H           9.8263    0.9271    0.1920 H       1  UNL1        0.0230
     57 H          11.2077    2.5817   -4.6979 H       1  UNL1        0.0558
     58 H          10.9103    3.9611   -3.6089 H       1  UNL1        0.0558
     59 H          10.5311    5.0076   -6.1007 H       1  UNL1        0.1495
     60 H          14.4697    4.3157   -7.6520 H       1  UNL1        0.0625
     61 H          15.2598    6.0086   -9.2922 H       1  UNL1        0.0618
     62 H          14.1080    8.1960   -9.4689 H       1  UNL1        0.0618
     63 H          12.3225    8.7901   -7.8528 H       1  UNL1        0.0618
     64 H          11.6223    7.1718   -6.1171 H       1  UNL1        0.0625
@<TRIPOS>BOND
     1     1     2    1
     2     2     3    1
     3     3     4    1
     4     4     5    1
     5     5     6   am
     6     6     7    2
     7     6     8    1
     8     8     9    1
     9     9    10   ar
    10    10    11    1
    11    10    12   ar
    12    12    13   ar
    13    13    14    1
    14    13    15   ar
    15    15    16   ar
    16     9    16   ar
    17    16    17    1
    18     8    18    1
    19    18    19    1
    20    19    20    1
    21    20    21    1
    22    18    22   am
    23    22    23    2
    24    22    24    1
    25    24    25    1
    26    25    26   am
    27    26    27    2
    28    26    28    1
    29    28    29   ar
    30    29    30   ar
    31    30    31   ar
    32    31    32   ar
    33    32    33   ar
    34    28    33   ar
    35     1    34    1
    36     1    35    1
    37     1    36    1
    38     2    37    1
    39     2    38    1
    40     3    39    1
    41     3    40    1
    42     4    41    1
    43     4    42    1
    44     5    43    1
    45     8    44    1
    46    11    45    1
    47    12    46    1
    48    14    47    1
    49    15    48    1
    50    17    49    1
    51    19    50    1
    52    19    51    1
    53    20    52    1
    54    20    53    1
    55    21    54    1
    56    21    55    1
    57    21    56    1
    58    24    57    1
    59    24    58    1
    60    25    59    1
    61    29    60    1
    62    30    61    1
    63    31    62    1
    64    32    63    1
    65    33    64    1
