@<TRIPOS>MOLECULE
*****
 48 49 0 0 0
SMALL
GASTEIGER

@<TRIPOS>ATOM
      1 C          -0.8864   -3.9559    0.0819 C.3     1  UNL1        0.0789
      2 O          -0.0523   -2.8343    0.3770 O.3     1  UNL1       -0.4933
      3 C           0.6288   -2.3349   -0.7145 C.ar    1  UNL1        0.1408
      4 C          -0.0037   -2.1457   -1.9679 C.ar    1  UNL1       -0.0179
      5 C           0.6858   -1.6245   -3.0703 C.ar    1  UNL1       -0.0553
      6 C           2.0026   -1.2545   -2.9185 C.ar    1  UNL1       -0.0485
      7 C           2.8774   -0.7202   -4.0174 C.3     1  UNL1       -0.0396
      8 C           2.5802   -1.4006   -1.6550 C.ar    1  UNL1       -0.0343
      9 C           1.9686   -1.9405   -0.5172 C.ar    1  UNL1        0.0702
     10 N           2.6418   -2.1928    0.6857 N.pl3   1  UNL1       -0.3303
     11 C           4.0314   -1.8163    1.0810 C.3     1  UNL1        0.0949
     12 C           5.0172   -1.7732   -0.1021 C.3     1  UNL1       -0.0381
     13 C           4.6814   -2.8399    2.0690 C.2     1  UNL1        0.2404
     14 O           5.6377   -3.5126    1.6769 O.2     1  UNL1       -0.2733
     15 N           4.2047   -2.9274    3.3707 N.am    1  UNL1       -0.2387
     16 C           4.8532   -3.7509    4.2806 C.2     1  UNL1        0.3062
     17 O           5.8235   -4.4450    4.0266 O.2     1  UNL1       -0.2524
     18 N           4.2961   -3.8025    5.5487 N.am    1  UNL1       -0.2950
     19 C           4.7692   -4.8569    6.4685 C.3     1  UNL1        0.0383
     20 C           4.2505   -6.2500    6.1369 C.ar    1  UNL1       -0.0303
     21 C           4.5655   -7.3618    6.9393 C.ar    1  UNL1       -0.0571
     22 C           4.1322   -8.6471    6.5764 C.ar    1  UNL1       -0.0615
     23 C           3.3945   -8.8406    5.4087 C.ar    1  UNL1       -0.0617
     24 C           3.0745   -7.7536    4.6105 C.ar    1  UNL1       -0.0615
     25 C           3.4891   -6.4797    4.9806 C.ar    1  UNL1       -0.0571
     26 H          -1.3820   -4.2583    1.0101 H       1  UNL1        0.0660
     27 H          -0.2845   -4.7994   -0.2715 H       1  UNL1        0.0660
     28 H          -1.6809   -3.7229   -0.6336 H       1  UNL1        0.0660
     29 H          -1.0507   -2.3867   -2.1126 H       1  UNL1        0.0655
     30 H           0.1935   -1.5037   -4.0300 H       1  UNL1        0.0621
     31 H           2.3360   -0.6092   -4.9577 H       1  UNL1        0.0278
     32 H           3.7261   -1.3968   -4.1850 H       1  UNL1        0.0278
     33 H           3.2838    0.2591   -3.7341 H       1  UNL1        0.0278
     34 H           3.5884   -1.0598   -1.6697 H       1  UNL1        0.0640
     35 H           2.0079   -2.4742    1.4306 H       1  UNL1        0.1469
     36 H           4.0221   -0.8264    1.5541 H       1  UNL1        0.0591
     37 H           4.8539   -2.6349   -0.7676 H       1  UNL1        0.0252
     38 H           6.0710   -1.7814    0.1833 H       1  UNL1        0.0252
     39 H           4.9486   -0.8243   -0.6333 H       1  UNL1        0.0252
     40 H           3.4139   -2.3777    3.6537 H       1  UNL1        0.1591
     41 H           3.3955   -3.4012    5.7466 H       1  UNL1        0.1506
     42 H           4.4453   -4.5823    7.4791 H       1  UNL1        0.0512
     43 H           5.8675   -4.8682    6.4556 H       1  UNL1        0.0512
     44 H           5.1640   -7.2530    7.8423 H       1  UNL1        0.0621
     45 H           4.3812   -9.5069    7.1941 H       1  UNL1        0.0618
     46 H           3.0763   -9.8347    5.1096 H       1  UNL1        0.0618
     47 H           2.5196   -7.8789    3.6858 H       1  UNL1        0.0618
     48 H           3.2313   -5.6690    4.3107 H       1  UNL1        0.0621
@<TRIPOS>BOND
     1     1     2    1
     2     2     3    1
     3     3     4   ar
     4     4     5   ar
     5     5     6   ar
     6     6     7    1
     7     6     8   ar
     8     8     9   ar
     9     3     9   ar
    10     9    10    1
    11    11    13    1
    12    13    14    2
    13    13    15   am
    14    15    16   am
    15    16    17    2
    16    16    18   am
    17    18    19    1
    18    19    20    1
    19    20    21   ar
    20    21    22   ar
    21    22    23   ar
    22    23    24   ar
    23    24    25   ar
    24    20    25   ar
    25    11    12    1
    26    11    10    1
    27     1    26    1
    28     1    27    1
    29     1    28    1
    30     4    29    1
    31     5    30    1
    32     7    31    1
    33     7    32    1
    34     7    33    1
    35     8    34    1
    36    10    35    1
    37    11    36    1
    38    12    37    1
    39    12    38    1
    40    12    39    1
    41    15    40    1
    42    18    41    1
    43    19    42    1
    44    19    43    1
    45    21    44    1
    46    22    45    1
    47    23    46    1
    48    24    47    1
    49    25    48    1
