REMARK  10 active torsions:
REMARK  status: ('A' for Active; 'I' for Inactive)
REMARK    1  A    between atoms: C_2  and  C_3 
REMARK    2  A    between atoms: C_3  and  O_4 
REMARK    3  A    between atoms: O_4  and  C_5 
REMARK    4  A    between atoms: C_9  and  C_10 
REMARK       I    between atoms: C_10  and  N_12 
REMARK    5  A    between atoms: N_12  and  C_13 
REMARK    6  A    between atoms: C_13  and  N_15 
REMARK    7  A    between atoms: N_15  and  C_16 
REMARK    8  A    between atoms: C_18  and  C_19 
REMARK    9  A    between atoms: C_19  and  O_21 
REMARK   10  A    between atoms: C_25  and  N_26 
ROOT
ATOM      1  C   UNL d   1       2.025  -9.391   0.339  0.00  0.00     0.062 A 
ATOM      2  C   UNL d   1       1.409  -9.873  -0.847  0.00  0.00     0.049 A 
ATOM      3  C   UNL d   1       0.942 -11.204  -0.953  0.00  0.00     0.041 A 
ATOM      4  C   UNL d   1       1.187 -12.078   0.107  0.00  0.00     0.020 A 
ATOM      5  C   UNL d   1       1.832 -11.616   1.274  0.00  0.00     0.033 A 
ATOM      6  C   UNL d   1       2.259 -10.277   1.433  0.00  0.00     0.057 A 
ENDROOT
BRANCH   1   7
ATOM      7  N   UNL d   1       2.450  -7.997   0.400  0.00  0.00    -0.331 N 
ATOM      8  H   UNL d   1       1.864  -7.385  -0.162  0.00  0.00     0.168 HD
BRANCH   7   9
ATOM      9  C   UNL d   1       3.826  -7.662   0.353  0.00  0.00     0.179 C 
ATOM     10  S   UNL d   1       5.010  -8.763  -0.115  0.00  0.00    -0.040 SA
BRANCH   9  11
ATOM     11  N   UNL d   1       4.094  -6.336   0.814  0.00  0.00    -0.299 N 
ATOM     12  C   UNL d   1       5.348  -5.886   1.326  0.00  0.00     0.257 C 
ATOM     13  O   UNL d   1       6.322  -6.605   1.428  0.00  0.00    -0.267 OA
ATOM     14  H   UNL d   1       3.306  -5.709   0.860  0.00  0.00     0.171 HD
BRANCH  12  15
ATOM     15  C   UNL d   1       5.532  -4.491   1.859  0.00  0.00     0.035 A 
ATOM     16  C   UNL d   1       6.727  -4.163   2.550  0.00  0.00     0.017 A 
ATOM     17  C   UNL d   1       7.107  -2.828   2.730  0.00  0.00     0.004 A 
ATOM     18  C   UNL d   1       6.274  -1.818   2.268  0.00  0.00     0.037 A 
ATOM     19  C   UNL d   1       5.067  -2.139   1.642  0.00  0.00     0.069 A 
ATOM     20  C   UNL d   1       4.674  -3.470   1.484  0.00  0.00     0.053 A 
BRANCH  19  21
ATOM     21  O   UNL d   1       4.422  -1.092   1.047  0.00  0.00    -0.351 OA
BRANCH  21  22
ATOM     22  C   UNL d   1       3.005  -1.199   0.962  0.00  0.00     0.175 C 
BRANCH  22  23
ATOM     23  C   UNL d   1       2.494  -0.053   0.104  0.00  0.00     0.022 C 
ATOM     24  C   UNL d   1       0.977  -0.046   0.077  0.00  0.00     0.007 C 
ENDBRANCH  22  23
ENDBRANCH  21  22
ENDBRANCH  19  21
ENDBRANCH  12  15
ENDBRANCH   9  11
ENDBRANCH   7   9
ENDBRANCH   1   7
BRANCH   6  25
ATOM     25  N   UNL d   1       2.863  -9.879   2.624  0.00  0.00    -0.376 N 
ATOM     26  C   UNL d   1       2.337  -8.775   3.425  0.00  0.00     0.150 C 
ATOM     27  C   UNL d   1       3.435  -7.730   3.687  0.00  0.00     0.254 C 
ATOM     28  N   UNL d   1       4.715  -8.324   4.252  0.00  0.00    -0.072 N 
ATOM     29  C   UNL d   1       5.802  -7.299   4.429  0.00  0.00     0.269 C 
ATOM     30  C   UNL d   1       5.215  -9.534   3.441  0.00  0.00     0.254 C 
ATOM     31  H   UNL d   1       4.486  -8.677   5.183  0.00  0.00     0.279 HD
ATOM     32  C   UNL d   1       4.068 -10.545   3.146  0.00  0.00     0.150 C 
ENDBRANCH   6  25
BRANCH   3  33
ATOM     33  C   UNL d   1       0.129 -11.612  -2.151  0.00  0.00     0.293 C 
ATOM     34  O   UNL d   1      -0.090 -10.847  -3.086  0.00  0.00    -0.259 OA
BRANCH  33  35
ATOM     35  O   UNL d   1      -0.395 -12.861  -2.027  0.00  0.00    -0.323 OA
ATOM     36  C   UNL d   1      -1.283 -13.263  -3.087  0.00  0.00     0.213 C 
ENDBRANCH  33  35
ENDBRANCH   3  33
TORSDOF 10
