@<TRIPOS>MOLECULE
*****
 34 35 0 0 0
SMALL
GASTEIGER

@<TRIPOS>ATOM
      1 C          -5.8280   -5.2500   10.2231 C.3     1  UNL1       -0.0396
      2 C          -5.7204   -5.7380    8.8057 C.ar    1  UNL1       -0.0470
      3 C          -5.4202   -4.8813    7.7429 C.ar    1  UNL1       -0.0579
      4 C          -5.3491   -5.3634    6.4194 C.ar    1  UNL1       -0.0458
      5 C          -5.5658   -6.7187    6.1226 C.ar    1  UNL1        0.0795
      6 C          -5.5278   -7.2572    4.7047 C.2     1  UNL1        0.2637
      7 O          -5.7114   -8.4648    4.5264 O.2     1  UNL1       -0.2685
      8 N          -5.2952   -6.3802    3.6429 N.am    1  UNL1       -0.2303
      9 N          -5.3311   -6.8478    2.2771 N.am    1  UNL1       -0.2339
     10 C          -5.1033   -5.9323    1.2455 C.2     1  UNL1        0.2324
     11 O          -5.0029   -4.7231    1.4725 O.2     1  UNL1       -0.2740
     12 C          -4.7187   -6.4484   -0.1121 C.3     1  UNL1        0.0398
     13 C          -5.2086   -7.7708   -0.6618 C.3     1  UNL1       -0.0383
     14 C          -5.4454   -6.5134   -1.4576 C.3     1  UNL1       -0.0320
     15 C          -6.8033   -6.0606   -1.8672 C.3     1  UNL1       -0.0617
     16 C          -5.8432   -7.5743    7.2119 C.ar    1  UNL1        0.1292
     17 O          -6.0519   -8.9253    7.0919 O.3     1  UNL1       -0.5060
     18 C          -5.9266   -7.0907    8.5269 C.ar    1  UNL1       -0.0165
     19 H          -5.6501   -4.1726   10.3025 H       1  UNL1        0.0278
     20 H          -5.0930   -5.7598   10.8555 H       1  UNL1        0.0278
     21 H          -6.8305   -5.4527   10.6165 H       1  UNL1        0.0278
     22 H          -5.2418   -3.8232    7.9307 H       1  UNL1        0.0620
     23 H          -5.1229   -4.6400    5.6447 H       1  UNL1        0.0626
     24 H          -5.1112   -5.3852    3.7454 H       1  UNL1        0.1731
     25 H          -5.3170   -7.8569    2.1501 H       1  UNL1        0.1728
     26 H          -3.6817   -6.1636   -0.2938 H       1  UNL1        0.0397
     27 H          -6.0544   -8.2675   -0.2033 H       1  UNL1        0.0275
     28 H          -4.4559   -8.4596   -1.0370 H       1  UNL1        0.0275
     29 H          -4.8047   -6.3922   -2.3329 H       1  UNL1        0.0306
     30 H          -7.5904   -6.1882   -1.1233 H       1  UNL1        0.0233
     31 H          -7.1074   -6.6093   -2.7733 H       1  UNL1        0.0233
     32 H          -6.7636   -5.0076   -2.1717 H       1  UNL1        0.0233
     33 H          -5.9672   -9.1658    6.1450 H       1  UNL1        0.2922
     34 H          -6.1570   -7.7795    9.3390 H       1  UNL1        0.0657
@<TRIPOS>BOND
     1     1     2    1
     2     2     3   ar
     3     3     4   ar
     4     4     5   ar
     5     5     6    1
     6     6     7    2
     7     6     8   am
     8     8     9    1
     9     9    10   am
    10    10    11    2
    11    12    13    1
    12    13    14    1
    13    12    14    1
    14     5    16   ar
    15    16    17    1
    16    16    18   ar
    17     2    18   ar
    18    12    10    1
    19    14    15    1
    20     1    19    1
    21     1    20    1
    22     1    21    1
    23     3    22    1
    24     4    23    1
    25     8    24    1
    26     9    25    1
    27    12    26    1
    28    13    27    1
    29    13    28    1
    30    14    29    1
    31    15    30    1
    32    15    31    1
    33    15    32    1
    34    17    33    1
    35    18    34    1
