@<TRIPOS>MOLECULE
*****
 34 35 0 0 0
SMALL
GASTEIGER

@<TRIPOS>ATOM
      1 C           2.3759   -0.6802    0.0327 C.3     1  UNL1       -0.0063
      2 C           1.0748    0.0262   -0.0019 C.ar    1  UNL1        0.1029
      3 C           0.6950    1.3536   -0.0074 C.ar    1  UNL1       -0.0085
      4 C          -0.7407    1.3962    0.0228 C.ar    1  UNL1        0.0789
      5 C          -1.6589    2.5470    0.0768 C.2     1  UNL1        0.2635
      6 O          -2.8862    2.4125    0.1117 O.2     1  UNL1       -0.2685
      7 N          -1.0881    3.8170    0.1002 N.am    1  UNL1       -0.2300
      8 N          -1.9270    4.9726    0.2012 N.am    1  UNL1       -0.2301
      9 C          -1.3530    6.2386    0.1570 C.2     1  UNL1        0.2603
     10 O          -0.1385    6.4111    0.0718 O.2     1  UNL1       -0.2687
     11 C          -2.2778    7.4194    0.2041 C.ar    1  UNL1        0.0416
     12 C          -3.3641    7.4648    1.0877 C.ar    1  UNL1       -0.0494
     13 C          -4.1925    8.5983    1.1350 C.ar    1  UNL1       -0.0576
     14 C          -3.9441    9.6966    0.3073 C.ar    1  UNL1       -0.0201
     15 C          -2.8514    9.6593   -0.5525 C.ar    1  UNL1        0.1176
     16 O          -2.5555   10.7107   -1.3724 O.3     1  UNL1       -0.5067
     17 C          -2.0167    8.5384   -0.6042 C.ar    1  UNL1       -0.0080
     18 C          -1.1209    0.0535    0.0049 C.ar    1  UNL1        0.1143
     19 C          -2.4105   -0.6773    0.0135 C.3     1  UNL1       -0.0056
     20 O          -0.0280   -0.7627   -0.0101 O.2     1  UNL1       -0.4644
     21 H           3.2104    0.0272    0.0187 H       1  UNL1        0.0308
     22 H           2.4850   -1.3522   -0.8252 H       1  UNL1        0.0308
     23 H           2.4606   -1.2817    0.9446 H       1  UNL1        0.0308
     24 H           1.3824    2.1863   -0.0078 H       1  UNL1        0.0659
     25 H          -0.0868    3.9902    0.0764 H       1  UNL1        0.1731
     26 H          -2.9310    4.8049    0.1593 H       1  UNL1        0.1731
     27 H          -3.5574    6.6438    1.7725 H       1  UNL1        0.0625
     28 H          -5.0308    8.6287    1.8288 H       1  UNL1        0.0619
     29 H          -4.6011   10.5620    0.3543 H       1  UNL1        0.0654
     30 H          -3.1911   11.4317   -1.2265 H       1  UNL1        0.2921
     31 H          -1.1656    8.5466   -1.2803 H       1  UNL1        0.0661
     32 H          -3.2706   -0.0075    0.0305 H       1  UNL1        0.0308
     33 H          -2.4727   -1.3284    0.8927 H       1  UNL1        0.0308
     34 H          -2.4954   -1.3111   -0.8764 H       1  UNL1        0.0308
@<TRIPOS>BOND
     1     1     2    1
     2     2     3   ar
     3     3     4   ar
     4     4     5    1
     5     5     6    2
     6     5     7   am
     7     7     8    1
     8     8     9   am
     9     9    10    2
    10     9    11    1
    11    11    12   ar
    12    12    13   ar
    13    13    14   ar
    14    14    15   ar
    15    15    16    1
    16    15    17   ar
    17    11    17   ar
    18     4    18   ar
    19    18    19    1
    20    18    20   ar
    21     2    20   ar
    22     1    21    1
    23     1    22    1
    24     1    23    1
    25     3    24    1
    26     7    25    1
    27     8    26    1
    28    12    27    1
    29    13    28    1
    30    14    29    1
    31    16    30    1
    32    17    31    1
    33    19    32    1
    34    19    33    1
    35    19    34    1
