REMARK  8 active torsions:
REMARK  status: ('A' for Active; 'I' for Inactive)
REMARK    1  A    between atoms: C_6  and  N_7 
REMARK       I    between atoms: N_7  and  C_8 
REMARK    2  A    between atoms: C_8  and  C_10 
REMARK    3  A    between atoms: C_15  and  N_16 
REMARK       I    between atoms: N_16  and  C_17 
REMARK    4  A    between atoms: C_17  and  C_19 
REMARK    5  A    between atoms: C_19  and  N_20 
REMARK    6  A    between atoms: N_20  and  C_21 
REMARK    7  A    between atoms: C_23  and  C_24 
REMARK    8  A    between atoms: C_24  and  O_25 
ROOT
ATOM      1  C   UNL d   1      -6.130   0.907   0.783  0.00  0.00     0.053 C 
ATOM      2  C   UNL d   1      -7.523   1.133   0.784  0.00  0.00     0.019 C 
ATOM      3  C   UNL d   1      -8.379   0.452   1.653  0.00  0.00     0.001 C 
ATOM      4  C   UNL d   1      -7.871  -0.495   2.533  0.00  0.00     0.002 C 
ATOM      5  C   UNL d   1      -6.498  -0.746   2.574  0.00  0.00     0.030 C 
ATOM      6  C   UNL d   1      -5.594  -0.015   1.779  0.00  0.00     0.050 C 
ENDROOT
BRANCH   6   7
ATOM      7  N   UNL d   1      -4.192  -0.285   2.120  0.00  0.00    -0.325 N 
ATOM      8  C   UNL d   1      -3.204   0.644   1.812  0.00  0.00     0.239 C 
ATOM      9  O   UNL d   1      -3.628   1.799   1.647  0.00  0.00    -0.271 OA
ATOM     10  H   UNL d   1      -3.949  -1.160   2.571  0.00  0.00     0.169 HD
BRANCH   8  11
ATOM     11  C   UNL d   1      -1.473   0.058   1.392  0.00  0.00     0.223 C 
BRANCH  11  12
ATOM     12  N   UNL d   1      -0.532   0.489  -0.489  0.00  0.00    -0.380 N 
ATOM     13  H   UNL d   1      -1.115   1.156  -1.118  0.00  0.00     0.160 HD
BRANCH  12  14
ATOM     14  C   UNL d   1       0.625   0.822  -1.359  0.00  0.00     0.051 C 
ATOM     15  C   UNL d   1       1.300  -0.411  -1.722  0.00  0.00     0.040 C 
ATOM     16  C   UNL d   1       2.714  -0.491  -1.496  0.00  0.00    -0.033 C 
ATOM     17  C   UNL d   1       3.481   0.822  -1.258  0.00  0.00     0.011 C 
ATOM     18  C   UNL d   1       2.754   2.149  -1.159  0.00  0.00     0.027 C 
ATOM     19  C   UNL d   1       1.319   2.167  -1.295  0.00  0.00     0.060 C 
ATOM     20 CL   UNL d   1       0.483   3.745  -0.893  0.00  0.00    -0.082 Cl
BRANCH  16  21
ATOM     21  C   UNL d   1       3.214  -1.915  -0.889  0.00  0.00     0.203 C 
BRANCH  21  22
ATOM     22  O   UNL d   1       2.225  -2.928  -0.571  0.00  0.00    -0.396 OA
ATOM     23  H   UNL d   1       2.070  -2.908   0.397  0.00  0.00     0.209 HD
ENDBRANCH  21  22
ENDBRANCH  16  21
ENDBRANCH  12  14
ENDBRANCH  11  12
ENDBRANCH   8  11
ENDBRANCH   6   7
BRANCH   1  24
ATOM     24  C   UNL d   1      -5.452   1.712  -0.348  0.00  0.00     0.233 C 
ATOM     25  N   UNL d   1      -4.239   1.351  -0.825  0.00  0.00    -0.254 NA
ATOM     26  H   UNL d   1      -3.624   2.021  -0.352  0.00  0.00     0.131 HD
ATOM     27  O   UNL d   1      -5.953   2.703  -0.880  0.00  0.00    -0.274 OA
BRANCH  25  28
ATOM     28  C   UNL d   1      -3.776   0.021  -0.764  0.00  0.00     0.134 C 
ATOM     29  C   UNL d   1      -2.421   0.195  -0.351  0.00  0.00    -0.045 A 
ATOM     30  C   UNL d   1      -1.507  -1.347  -0.225  0.00  0.00     0.009 A 
ATOM     31  C   UNL d   1      -1.667   1.783   0.418  0.00  0.00     0.009 A 
ATOM     32  C   UNL d   1       0.003  -1.342   0.624  0.00  0.00     0.007 A 
ATOM     33  C   UNL d   1       0.730   0.069   1.300  0.00  0.00    -0.062 A 
ATOM     34  C   UNL d   1       2.184   0.180   1.082  0.00  0.00     0.048 C 
ATOM     35  C   UNL d   1      -0.056   1.631   1.214  0.00  0.00     0.007 A 
ENDBRANCH  25  28
ENDBRANCH   1  24
TORSDOF 8
