@<TRIPOS>MOLECULE
*****
 35 37 0 0 0
SMALL
GASTEIGER

@<TRIPOS>ATOM
      1 N           1.2135   -0.1157   -0.0363 N.am    1  UNL1       -0.3253
      2 C           2.5981   -0.2163   -0.0540 C.2     1  UNL1        0.2416
      3 O           3.1923   -0.9867    0.6438 O.2     1  UNL1       -0.2704
      4 C           3.3066    0.7676   -0.9307 C.ar    1  UNL1        0.0382
      5 C           4.4119    0.5005   -1.7078 C.ar    1  UNL1       -0.0495
      6 C           5.0314    1.5747   -2.3758 C.ar    1  UNL1       -0.0593
      7 C           4.5139    2.8997   -2.3070 C.ar    1  UNL1       -0.0405
      8 C           3.4004    3.1728   -1.5055 C.ar    1  UNL1        0.0333
      9 N           2.8294    4.4880   -1.3335 N.am    1  UNL1       -0.2966
     10 C           1.6406    4.8292   -0.6270 C.2     1  UNL1        0.1388
     11 S           0.4745    3.7852    0.0536 S.2     1  UNL1       -0.0182
     12 N           1.4080    6.2135   -0.5465 N.am    1  UNL1       -0.2965
     13 C           0.5079    6.7503    0.4138 C.ar    1  UNL1        0.0363
     14 C          -0.6555    7.4497    0.1225 C.ar    1  UNL1       -0.0368
     15 C          -1.5986    7.6111    1.1738 C.ar    1  UNL1       -0.0144
     16 C          -1.2497    7.2105    2.4839 C.ar    1  UNL1        0.1663
     17 C           0.0737    7.0806    2.7668 C.ar    1  UNL1        0.1680
     18 C           0.8255    6.5352    1.7506 C.ar    1  UNL1        0.0051
     19 O           0.3052    6.6632    4.0534 O.3     1  UNL1       -0.4525
     20 C          -0.6510    5.6144    3.9999 C.3     1  UNL1        0.2332
     21 O          -1.8113    6.0842    3.2026 O.3     1  UNL1       -0.4526
     22 C           2.8829    2.0803   -0.8240 C.ar    1  UNL1       -0.0284
     23 H           0.7072   -0.6908    0.6245 H       1  UNL1        0.1453
     24 H           0.6798    0.5717   -0.5513 H       1  UNL1        0.1453
     25 H           4.7871   -0.5154   -1.7827 H       1  UNL1        0.0625
     26 H           5.9385    1.3742   -2.9453 H       1  UNL1        0.0618
     27 H           5.0156    3.6728   -2.8867 H       1  UNL1        0.0636
     28 H           3.3359    5.2377   -1.7945 H       1  UNL1        0.1538
     29 H           1.8259    6.8677   -1.1906 H       1  UNL1        0.1538
     30 H          -0.8641    7.8103   -0.8822 H       1  UNL1        0.0637
     31 H          -2.3555    8.3875    1.0085 H       1  UNL1        0.0656
     32 H           1.5271    5.7555    2.0275 H       1  UNL1        0.0674
     33 H          -0.8879    5.2773    5.0173 H       1  UNL1        0.1166
     34 H          -0.1241    4.7586    3.5304 H       1  UNL1        0.1166
     35 H           2.1336    2.1885   -0.0761 H       1  UNL1        0.0644
@<TRIPOS>BOND
     1     1     2   am
     2     2     3    2
     3     2     4    1
     4     4     5   ar
     5     5     6   ar
     6     6     7   ar
     7     7     8   ar
     8     8     9    1
     9     9    10    1
    10    10    11    2
    11    10    12    1
    12    12    13    1
    13    13    14   ar
    14    14    15   ar
    15    15    16   ar
    16    16    17   ar
    17    17    18   ar
    18    13    18   ar
    19    17    19    1
    20    19    20    1
    21    20    21    1
    22    16    21    1
    23     8    22   ar
    24     4    22   ar
    25     1    23    1
    26     1    24    1
    27     5    25    1
    28     6    26    1
    29     7    27    1
    30     9    28    1
    31    12    29    1
    32    14    30    1
    33    15    31    1
    34    18    32    1
    35    20    33    1
    36    20    34    1
    37    22    35    1
