REMARK  6 active torsions:
REMARK  status: ('A' for Active; 'I' for Inactive)
REMARK    1  A    between atoms: C_3  and  C_19 
REMARK    2  A    between atoms: C_4  and  C_5 
REMARK    3  A    between atoms: C_8  and  C_9 
REMARK    4  A    between atoms: C_13  and  N_14 
REMARK       I    between atoms: C_19  and  N_21 
REMARK    5  A    between atoms: N_21  and  C_22 
REMARK    6  A    between atoms: C_24  and  C_25 
ROOT
ATOM      1  N   UNL d   1       0.984   0.099   0.004  0.00  0.00    -0.096 N 
ATOM      2  C   UNL d   1       2.245   0.099   0.004  0.00  0.00     0.025 C 
ATOM      3  C   UNL d   1       3.765   0.099   0.004  0.00  0.00     0.101 C 
ATOM      4  C   UNL d   1       4.394   1.296  -0.108  0.00  0.00     0.064 C 
ENDROOT
BRANCH   3   5
ATOM      5  C   UNL d   1       4.461  -1.218   0.161  0.00  0.00     0.265 C 
ATOM      6  O   UNL d   1       3.770  -2.212   0.404  0.00  0.00    -0.267 OA
ATOM      7  N   UNL d   1       5.851  -1.257   0.127  0.00  0.00    -0.321 N 
ATOM      8  H   UNL d   1       6.397  -0.414   0.247  0.00  0.00     0.169 HD
BRANCH   7   9
ATOM      9  C   UNL d   1       6.588  -2.481   0.100  0.00  0.00     0.057 A 
ATOM     10  C   UNL d   1       7.777  -2.576   0.854  0.00  0.00     0.047 A 
ATOM     11  C   UNL d   1       8.597  -3.727   0.775  0.00  0.00     0.050 A 
ATOM     12  C   UNL d   1       8.167  -4.819   0.013  0.00  0.00     0.018 A 
ATOM     13  C   UNL d   1       7.006  -4.729  -0.746  0.00  0.00     0.027 A 
ATOM     14  C   UNL d   1       6.233  -3.565  -0.730  0.00  0.00     0.060 A 
ATOM     15 CL   UNL d   1       4.987  -3.489  -1.933  0.00  0.00    -0.082 Cl
BRANCH  11  16
ATOM     16  C   UNL d   1       9.975  -3.771   1.402  0.00  0.00     0.417 C 
ATOM     17  F   UNL d   1      10.764  -2.758   0.946  0.00  0.00    -0.166 F 
ATOM     18  F   UNL d   1       9.962  -3.663   2.755  0.00  0.00    -0.166 F 
ATOM     19  F   UNL d   1      10.658  -4.918   1.121  0.00  0.00    -0.166 F 
ENDBRANCH  11  16
ENDBRANCH   7   9
ENDBRANCH   3   5
BRANCH   4  20
ATOM     20  C   UNL d   1       3.669   2.541  -0.111  0.00  0.00     0.077 A 
ATOM     21  C   UNL d   1       2.617   2.925   0.719  0.00  0.00     0.040 A 
ATOM     22  C   UNL d   1       2.171   4.196   0.324  0.00  0.00     0.041 A 
ATOM     23  C   UNL d   1       2.996   4.591  -0.697  0.00  0.00     0.086 A 
ATOM     24  O   UNL d   1       3.920   3.612  -0.962  0.00  0.00    -0.310 OA
BRANCH  23  25
ATOM     25  C   UNL d   1       3.052   5.838  -1.443  0.00  0.00     0.000 A 
ATOM     26  C   UNL d   1       2.914   5.873  -2.835  0.00  0.00     0.014 A 
ATOM     27  C   UNL d   1       2.965   7.090  -3.526  0.00  0.00     0.003 A 
ATOM     28  C   UNL d   1       3.088   8.294  -2.829  0.00  0.00     0.036 A 
ATOM     29  C   UNL d   1       3.194   8.267  -1.434  0.00  0.00     0.103 A 
ATOM     30  C   UNL d   1       3.166   7.050  -0.741  0.00  0.00     0.050 A 
BRANCH  29  31
ATOM     31  N   UNL d   1       3.382   9.522  -0.694  0.00  0.00    -0.116 N 
ATOM     32  O   UNL d   1       3.432  10.574  -1.341  0.00  0.00    -0.532 OA
ATOM     33  O   UNL d   1       3.493   9.449   0.542  0.00  0.00    -0.532 OA
ENDBRANCH  29  31
ENDBRANCH  23  25
ENDBRANCH   4  20
TORSDOF 6
