REMARK  5 active torsions:
REMARK  status: ('A' for Active; 'I' for Inactive)
REMARK    1  A    between atoms: C_2  and  C_12 
REMARK    2  A    between atoms: C_2  and  C_3 
REMARK    3  A    between atoms: C_3  and  N_4 
REMARK    4  A    between atoms: N_4  and  C_5 
REMARK       I    between atoms: C_12  and  N_14 
REMARK    5  A    between atoms: N_14  and  N_15 
ROOT
ATOM      1  C   UNL d   1       0.960   0.049   0.120  0.00  0.00     0.133 C 
ENDROOT
BRANCH   1   2
ATOM      2  N   UNL d   1       0.465   0.732   1.322  0.00  0.00    -0.389 N 
ATOM      3  H   UNL d   1       1.065   1.418   1.765  0.00  0.00     0.159 HD
BRANCH   2   4
ATOM      4  C   UNL d   1      -0.908   0.900   1.497  0.00  0.00     0.029 A 
ATOM      5  C   UNL d   1      -1.792  -0.174   1.331  0.00  0.00     0.029 A 
ATOM      6  C   UNL d   1      -3.165  -0.033   1.552  0.00  0.00     0.004 A 
ATOM      7  C   UNL d   1      -3.689   1.208   1.896  0.00  0.00     0.024 A 
ATOM      8  C   UNL d   1      -2.833   2.299   2.014  0.00  0.00     0.036 A 
ATOM      9 CL   UNL d   1      -3.491   3.845   2.399  0.00  0.00    -0.084 Cl
ATOM     10  C   UNL d   1      -1.452   2.150   1.823  0.00  0.00     0.052 A 
ENDBRANCH   2   4
ENDBRANCH   1   2
BRANCH   1  11
ATOM     11  C   UNL d   1       2.507   0.065   0.051  0.00  0.00     0.093 C 
ATOM     12  C   UNL d   1       3.020  -1.363  -0.174  0.00  0.00     0.021 C 
BRANCH  11  13
ATOM     13  C   UNL d   1       3.000   0.985  -1.070  0.00  0.00     0.237 C 
ATOM     14  O   UNL d   1       2.247   1.624  -1.814  0.00  0.00    -0.272 OA
ATOM     15  N   UNL d   1       4.382   1.068  -1.211  0.00  0.00    -0.294 N 
ATOM     16  H   UNL d   1       5.012   0.640  -0.535  0.00  0.00     0.183 HD
BRANCH  15  17
ATOM     17  N   UNL d   1       4.921   1.967  -2.164  0.00  0.00    -0.247 NA
ATOM     18  H   UNL d   1       4.120   2.388  -2.661  0.00  0.00     0.143 HD
ATOM     19  H   UNL d   1       5.408   1.429  -2.885  0.00  0.00     0.143 HD
ENDBRANCH  15  17
ENDBRANCH  11  13
ENDBRANCH   1  11
TORSDOF 5
