REMARK  13 active torsions:
REMARK  status: ('A' for Active; 'I' for Inactive)
REMARK    1  A    between atoms: C_2  and  C_3 
REMARK    2  A    between atoms: C_3  and  C_4 
REMARK    3  A    between atoms: C_4  and  C_5 
REMARK    4  A    between atoms: C_5  and  C_6 
REMARK    5  A    between atoms: C_6  and  N_7 
REMARK       I    between atoms: N_7  and  C_8 
REMARK    6  A    between atoms: C_12  and  N_7 
REMARK    7  A    between atoms: C_8  and  C_10 
REMARK    8  A    between atoms: C_12  and  C_22 
REMARK    9  A    between atoms: C_12  and  C_13 
REMARK       I    between atoms: C_13  and  N_15 
REMARK   10  A    between atoms: N_15  and  C_16 
REMARK   11  A    between atoms: C_23  and  O_24 
REMARK   12  A    between atoms: C_26  and  O_27 
REMARK   13  A    between atoms: C_29  and  O_30 
ROOT
ATOM      1  C   UNL d   1       8.472  -3.983  -2.111  0.00  0.00     0.218 C 
ENDROOT
BRANCH   1   2
ATOM      2  C   UNL d   1       8.686  -5.280  -2.950  0.00  0.00     0.040 C 
ATOM      3  C   UNL d   1       8.582  -6.590  -2.440  0.00  0.00     0.080 C 
ATOM      4  C   UNL d   1       8.759  -7.755  -3.153  0.00  0.00     0.073 C 
ATOM      5  C   UNL d   1       8.826  -7.663  -4.514  0.00  0.00     0.071 C 
ATOM      6  C   UNL d   1       8.830  -6.417  -5.129  0.00  0.00     0.073 C 
ATOM      7  C   UNL d   1       8.800  -5.238  -4.353  0.00  0.00     0.080 C 
BRANCH   3   8
ATOM      8  O   UNL d   1       8.044  -6.895  -1.230  0.00  0.00    -0.360 OA
ATOM      9  H   UNL d   1       7.630  -6.060  -1.045  0.00  0.00     0.217 HD
ENDBRANCH   3   8
BRANCH   5  10
ATOM     10  O   UNL d   1       8.801  -8.803  -5.255  0.00  0.00    -0.361 OA
ATOM     11  H   UNL d   1       8.740  -9.553  -4.634  0.00  0.00     0.217 HD
ENDBRANCH   5  10
BRANCH   7  12
ATOM     12  O   UNL d   1       8.809  -4.033  -4.999  0.00  0.00    -0.360 OA
ATOM     13  H   UNL d   1       8.858  -4.180  -5.960  0.00  0.00     0.217 HD
ENDBRANCH   7  12
ENDBRANCH   1   2
BRANCH   1  14
ATOM     14  C   UNL d   1       6.931  -3.659  -2.070  0.00  0.00     0.245 C 
ATOM     15  O   UNL d   1       6.425  -2.882  -2.883  0.00  0.00    -0.271 OA
ATOM     16  N   UNL d   1       6.135  -4.370  -1.175  0.00  0.00    -0.354 N 
ATOM     17  H   UNL d   1       6.453  -5.125  -0.621  0.00  0.00     0.162 HD
BRANCH  16  18
ATOM     18  C   UNL d   1       4.692  -4.248  -1.067  0.00  0.00     0.084 C 
ATOM     19  C   UNL d   1       4.191  -5.113   0.116  0.00  0.00     0.025 C 
ATOM     20  C   UNL d   1       2.695  -4.934   0.358  0.00  0.00     0.002 C 
ATOM     21  C   UNL d   1       2.335  -3.463   0.537  0.00  0.00     0.000 C 
ATOM     22  C   UNL d   1       2.811  -2.639  -0.648  0.00  0.00     0.002 C 
ATOM     23  C   UNL d   1       4.303  -2.790  -0.855  0.00  0.00     0.025 C 
ENDBRANCH  16  18
ENDBRANCH   1  14
BRANCH   1  24
ATOM     24  N   UNL d   1       9.174  -3.884  -0.739  0.00  0.00    -0.334 N 
ATOM     25  C   UNL d   1      10.022  -2.791  -0.500  0.00  0.00     0.220 C 
ATOM     26  O   UNL d   1      10.209  -1.893  -1.336  0.00  0.00    -0.273 OA
BRANCH  24  27
ATOM     27  C   UNL d   1       8.976  -4.949   0.232  0.00  0.00     0.127 C 
BRANCH  27  28
ATOM     28  C   UNL d   1       9.493  -4.972   1.621  0.00  0.00     0.020 C 
BRANCH  28  29
ATOM     29  C   UNL d   1       9.077  -6.185   2.393  0.00  0.00     0.002 C 
BRANCH  29  30
ATOM     30  C   UNL d   1       9.845  -6.017   3.686  0.00  0.00    -0.000 C 
BRANCH  30  31
ATOM     31  C   UNL d   1       9.523  -7.152   4.606  0.00  0.00    -0.005 C 
ATOM     32  C   UNL d   1      10.289  -6.964   5.891  0.00  0.00     0.005 C 
ENDBRANCH  30  31
ENDBRANCH  29  30
ENDBRANCH  28  29
ENDBRANCH  27  28
ENDBRANCH  24  27
BRANCH  25  33
ATOM     33  C   UNL d   1      10.735  -2.724   0.838  0.00  0.00     0.098 C 
ATOM     34  C   UNL d   1      11.658  -1.582   1.117  0.00  0.00     0.014 C 
ENDBRANCH  25  33
ENDBRANCH   1  24
TORSDOF 13
