@<TRIPOS>MOLECULE
*****
 64 66 0 0 0
SMALL
GASTEIGER

@<TRIPOS>ATOM
      1 C           1.0304    0.5996    0.0827 C.3     1  UNL1        0.0790
      2 O           2.3693    0.1408   -0.0460 O.3     1  UNL1       -0.4915
      3 C           2.9037   -0.7973    0.7942 C.ar    1  UNL1        0.1615
      4 C           4.1564   -0.4000    1.2694 C.ar    1  UNL1       -0.0159
      5 C           5.0651   -1.3090    1.8255 C.ar    1  UNL1       -0.0495
      6 C           4.6753   -2.5970    2.1664 C.ar    1  UNL1        0.0054
      7 C           5.5976   -3.5303    2.9470 C.3     1  UNL1        0.0204
      8 C           5.8187   -2.9651    4.4045 C.3     1  UNL1        0.0591
      9 N           6.5108   -1.6754    4.4802 N.am    1  UNL1       -0.3055
     10 C           6.7073   -1.0021    5.6741 C.2     1  UNL1        0.2487
     11 O           6.4362   -1.4846    6.7515 O.2     1  UNL1       -0.2700
     12 C           7.3346    0.3370    5.5766 C.ar    1  UNL1        0.0916
     13 C           8.3580    0.7057    6.4187 C.ar    1  UNL1        0.0455
     14 N           8.9727    1.9216    6.3866 N.ar    1  UNL1       -0.2295
     15 C           8.5213    2.8000    5.4798 C.ar    1  UNL1        0.1899
     16 S           9.2170    4.3974    5.2590 S.3     1  UNL1       -0.0813
     17 C          10.4394    4.5377    6.6012 C.3     1  UNL1        0.0262
     18 C          11.0548    5.9271    6.6324 C.ar    1  UNL1       -0.0371
     19 C          12.4177    6.1025    6.9067 C.ar    1  UNL1       -0.0575
     20 C          12.9549    7.3881    7.0434 C.ar    1  UNL1       -0.0586
     21 C          12.1655    8.5200    6.8141 C.ar    1  UNL1       -0.0504
     22 C          12.7659    9.8928    6.7971 C.3     1  UNL1       -0.0397
     23 C          10.8080    8.3550    6.5419 C.ar    1  UNL1       -0.0586
     24 C          10.2587    7.0763    6.4754 C.ar    1  UNL1       -0.0575
     25 N           7.5247    2.5416    4.6332 N.ar    1  UNL1       -0.2095
     26 C           6.9454    1.3385    4.7261 C.ar    1  UNL1        0.1456
     27 CL          5.5841    1.2667    3.7030 Cl      1  UNL1       -0.0611
     28 N           5.0711   -4.9843    2.9807 N.4     1  UNL1        0.2375
     29 C           4.9623   -5.6033    1.5913 C.3     1  UNL1       -0.0427
     30 C           5.8776   -5.9239    3.8321 C.3     1  UNL1       -0.0427
     31 C           3.3879   -2.9594    1.7667 C.ar    1  UNL1       -0.0078
     32 C           2.5437   -2.1294    1.0129 C.ar    1  UNL1        0.1619
     33 O           1.5053   -2.9025    0.5639 O.3     1  UNL1       -0.4914
     34 C           0.4811   -2.1845   -0.0540 C.3     1  UNL1        0.0790
     35 H           0.9366    1.5629   -0.4215 H       1  UNL1        0.0660
     36 H           0.6909    0.6644    1.1194 H       1  UNL1        0.0660
     37 H           0.3419    0.0096   -0.5170 H       1  UNL1        0.0660
     38 H           4.4547    0.6437    1.1720 H       1  UNL1        0.0655
     39 H           6.0753   -0.9520    1.9876 H       1  UNL1        0.0623
     40 H           6.5696   -3.5985    2.4405 H       1  UNL1        0.0920
     41 H           6.4411   -3.6402    4.9967 H       1  UNL1        0.0522
     42 H           4.8545   -2.8740    4.9211 H       1  UNL1        0.0522
     43 H           6.8908   -1.2582    3.6460 H       1  UNL1        0.1492
     44 H           8.7410    0.0199    7.1701 H       1  UNL1        0.0839
     45 H          11.2154    3.7835    6.4316 H       1  UNL1        0.0429
     46 H           9.9826    4.3503    7.5799 H       1  UNL1        0.0429
     47 H          13.0810    5.2468    7.0124 H       1  UNL1        0.0621
     48 H          13.9995    7.5032    7.3244 H       1  UNL1        0.0620
     49 H          13.8375    9.8610    7.0165 H       1  UNL1        0.0278
     50 H          12.2811   10.5392    7.5345 H       1  UNL1        0.0278
     51 H          12.6457   10.3295    5.7994 H       1  UNL1        0.0278
     52 H          10.1648    9.2164    6.3768 H       1  UNL1        0.0620
     53 H           9.1940    6.9929    6.2692 H       1  UNL1        0.0621
     54 H           4.1318   -4.9377    3.4007 H       1  UNL1        0.2035
     55 H           5.9704   -5.7117    1.1902 H       1  UNL1        0.0778
     56 H           4.3879   -4.9812    0.9071 H       1  UNL1        0.0778
     57 H           4.4464   -6.5607    1.6970 H       1  UNL1        0.0778
     58 H           6.8799   -5.9858    3.4024 H       1  UNL1        0.0778
     59 H           5.3781   -6.8962    3.8189 H       1  UNL1        0.0778
     60 H           5.8987   -5.5643    4.8597 H       1  UNL1        0.0778
     61 H           2.9869   -3.9535    1.9419 H       1  UNL1        0.0660
     62 H          -0.3531   -2.8077   -0.3695 H       1  UNL1        0.0660
     63 H           0.8975   -1.7425   -0.9636 H       1  UNL1        0.0660
     64 H           0.0736   -1.5083    0.7030 H       1  UNL1        0.0660
@<TRIPOS>UNITY_ATOM_ATTR
28 1
charge 1
@<TRIPOS>BOND
     1     1     2    1
     2     2     3    1
     3     3     4   ar
     4     4     5   ar
     5     5     6   ar
     6     6     7    1
     7     7     8    1
     8     8     9    1
     9     9    10   am
    10    10    11    2
    11    10    12    1
    12    12    13   ar
    13    13    14   ar
    14    14    15   ar
    15    15    16    1
    16    16    17    1
    17    17    18    1
    18    18    19   ar
    19    19    20   ar
    20    20    21   ar
    21    21    22    1
    22    21    23   ar
    23    23    24   ar
    24    18    24   ar
    25    15    25   ar
    26    25    26   ar
    27    12    26   ar
    28    26    27    1
    29     7    28    1
    30    28    29    1
    31    28    30    1
    32     6    31   ar
    33    31    32   ar
    34     3    32   ar
    35    32    33    1
    36    33    34    1
    37     1    35    1
    38     1    36    1
    39     1    37    1
    40     4    38    1
    41     5    39    1
    42     7    40    1
    43     8    41    1
    44     8    42    1
    45     9    43    1
    46    13    44    1
    47    17    45    1
    48    17    46    1
    49    19    47    1
    50    20    48    1
    51    22    49    1
    52    22    50    1
    53    22    51    1
    54    23    52    1
    55    24    53    1
    56    28    54    1
    57    29    55    1
    58    29    56    1
    59    29    57    1
    60    30    58    1
    61    30    59    1
    62    30    60    1
    63    31    61    1
    64    34    62    1
    65    34    63    1
    66    34    64    1
