@<TRIPOS>MOLECULE
*****
 66 68 0 0 0
SMALL
GASTEIGER

@<TRIPOS>ATOM
      1 O          12.6734    4.9906   12.3599 O.2     1  UNL1       -0.2754
      2 C          12.9395    5.0049   11.1592 C.2     1  UNL1        0.2185
      3 C          14.0226    5.8909   10.5678 C.3     1  UNL1        0.0248
      4 C          14.8049    6.7909   11.4878 C.3     1  UNL1       -0.0347
      5 C          15.8422    7.6185   10.6995 C.3     1  UNL1        0.0454
      6 C          16.5904    8.5062   11.6599 C.2     1  UNL1        0.3071
      7 O          16.3737    8.5370   12.8749 O.2     1  UNL1       -0.2509
      8 O          17.5314    9.2678   11.0392 O.3     1  UNL1       -0.4646
      9 C          18.2479   10.1137   11.9574 C.3     1  UNL1        0.0928
     10 C          19.2896   10.9282   11.2057 C.3     1  UNL1       -0.0146
     11 C          20.0911   11.8263   12.1572 C.3     1  UNL1       -0.0246
     12 C          21.1106   12.6720   11.4324 C.ar    1  UNL1       -0.0472
     13 C          21.1662   14.0526   11.6639 C.ar    1  UNL1       -0.0586
     14 C          22.0366   14.8578   10.9286 C.ar    1  UNL1       -0.0615
     15 C          22.9219   14.2821   10.0199 C.ar    1  UNL1       -0.0617
     16 C          22.9089   12.9053    9.8144 C.ar    1  UNL1       -0.0615
     17 C          22.0083   12.1048   10.5164 C.ar    1  UNL1       -0.0586
     18 N          12.2346    4.1774   10.2626 N.am    1  UNL1       -0.2676
     19 C          12.2544    4.0889    8.8497 C.2     1  UNL1        0.1408
     20 S          13.1344    5.1275    7.8354 S.2     1  UNL1       -0.0182
     21 N          11.4444    3.0569    8.3289 N.am    1  UNL1       -0.2966
     22 C          11.4907    2.7061    6.9398 C.ar    1  UNL1        0.0328
     23 C          10.3514    2.6120    6.1419 C.ar    1  UNL1       -0.0370
     24 C          10.4931    2.3415    4.7613 C.ar    1  UNL1       -0.0182
     25 C          11.7588    2.2383    4.1622 C.ar    1  UNL1        0.1207
     26 O          11.7987    2.0599    2.8044 O.3     1  UNL1       -0.4894
     27 C          13.1084    2.0617    2.1954 C.3     1  UNL1        0.1156
     28 C          12.9504    1.9458    0.6692 C.3     1  UNL1        0.0927
     29 C          13.6444    3.0716   -0.0881 C.3     1  UNL1       -0.0213
     30 C          15.0058    2.5029   -0.3968 C.3     1  UNL1       -0.0270
     31 C          14.7175    1.0324   -0.5848 C.3     1  UNL1        0.0482
     32 O          13.5718    0.7213    0.2173 O.3     1  UNL1       -0.3732
     33 C          12.8818    2.3234    4.9675 C.ar    1  UNL1       -0.0182
     34 C          12.7391    2.5006    6.3381 C.ar    1  UNL1       -0.0370
     35 H          13.5231    6.5776    9.8810 H       1  UNL1        0.0359
     36 H          14.7409    5.2306   10.0681 H       1  UNL1        0.0359
     37 H          15.3058    6.1860   12.2491 H       1  UNL1        0.0275
     38 H          14.1097    7.4657   11.9996 H       1  UNL1        0.0275
     39 H          15.3449    8.2399    9.9428 H       1  UNL1        0.0378
     40 H          16.5502    6.9546   10.1873 H       1  UNL1        0.0378
     41 H          18.7488    9.4891   12.7075 H       1  UNL1        0.0697
     42 H          17.5421   10.7889   12.4561 H       1  UNL1        0.0697
     43 H          18.7994   11.5358   10.4343 H       1  UNL1        0.0301
     44 H          19.9485   10.2382   10.6666 H       1  UNL1        0.0301
     45 H          20.6051   11.2287   12.9200 H       1  UNL1        0.0314
     46 H          19.3902   12.4821   12.6912 H       1  UNL1        0.0314
     47 H          20.5215   14.5138   12.4088 H       1  UNL1        0.0620
     48 H          22.0161   15.9364   11.0584 H       1  UNL1        0.0618
     49 H          23.6251   14.9061    9.4761 H       1  UNL1        0.0618
     50 H          23.5885   12.4535    9.0969 H       1  UNL1        0.0618
     51 H          22.0099   11.0336   10.3311 H       1  UNL1        0.0620
     52 H          11.5637    3.6097   10.7682 H       1  UNL1        0.1565
     53 H          10.6268    2.7514    8.8454 H       1  UNL1        0.1538
     54 H           9.3599    2.8227    6.5348 H       1  UNL1        0.0637
     55 H           9.6061    2.2290    4.1408 H       1  UNL1        0.0655
     56 H          13.6897    1.2134    2.5792 H       1  UNL1        0.0723
     57 H          13.6196    2.9995    2.4483 H       1  UNL1        0.0723
     58 H          11.8890    1.9016    0.4044 H       1  UNL1        0.0630
     59 H          13.6902    4.0160    0.4625 H       1  UNL1        0.0292
     60 H          13.1067    3.2657   -1.0238 H       1  UNL1        0.0292
     61 H          15.6738    2.6451    0.4600 H       1  UNL1        0.0288
     62 H          15.4788    2.9567   -1.2725 H       1  UNL1        0.0288
     63 H          15.5592    0.4042   -0.2776 H       1  UNL1        0.0560
     64 H          14.4772    0.7997   -1.6277 H       1  UNL1        0.0560
     65 H          13.8915    2.2624    4.5802 H       1  UNL1        0.0655
     66 H          13.6500    2.5393    6.9289 H       1  UNL1        0.0637
@<TRIPOS>BOND
     1     1     2    2
     2     2     3    1
     3     3     4    1
     4     4     5    1
     5     5     6    1
     6     6     7    2
     7     6     8    1
     8     8     9    1
     9     9    10    1
    10    10    11    1
    11    11    12    1
    12    12    13   ar
    13    13    14   ar
    14    14    15   ar
    15    15    16   ar
    16    16    17   ar
    17    12    17   ar
    18     2    18   am
    19    18    19    1
    20    19    20    2
    21    19    21    1
    22    21    22    1
    23    22    23   ar
    24    23    24   ar
    25    24    25   ar
    26    25    26    1
    27    26    27    1
    28    28    29    1
    29    29    30    1
    30    30    31    1
    31    31    32    1
    32    28    32    1
    33    25    33   ar
    34    33    34   ar
    35    22    34   ar
    36    28    27    1
    37     3    35    1
    38     3    36    1
    39     4    37    1
    40     4    38    1
    41     5    39    1
    42     5    40    1
    43     9    41    1
    44     9    42    1
    45    10    43    1
    46    10    44    1
    47    11    45    1
    48    11    46    1
    49    13    47    1
    50    14    48    1
    51    15    49    1
    52    16    50    1
    53    17    51    1
    54    18    52    1
    55    21    53    1
    56    23    54    1
    57    24    55    1
    58    27    56    1
    59    27    57    1
    60    28    58    1
    61    29    59    1
    62    29    60    1
    63    30    61    1
    64    30    62    1
    65    31    63    1
    66    31    64    1
    67    33    65    1
    68    34    66    1
