REMARK  13 active torsions:
REMARK  status: ('A' for Active; 'I' for Inactive)
REMARK    1  A    between atoms: O_2  and  C_3 
REMARK    2  A    between atoms: C_8  and  O_9 
REMARK    3  A    between atoms: O_9  and  C_10 
REMARK    4  A    between atoms: C_11  and  C_12 
REMARK    5  A    between atoms: N_13  and  C_12 
REMARK    6  A    between atoms: N_13  and  C_23 
REMARK    7  A    between atoms: N_13  and  C_14 
REMARK    8  A    between atoms: C_14  and  C_15 
REMARK    9  A    between atoms: C_15  and  O_16 
REMARK   10  A    between atoms: C_15  and  C_17 
REMARK   11  A    between atoms: C_17  and  O_18 
REMARK   12  A    between atoms: O_18  and  C_19 
REMARK   13  A    between atoms: N_29  and  C_30 
ROOT
ATOM      1  C   UNL d   1       1.263  -3.936   2.198  0.00  0.00     0.181 A 
ATOM      2  C   UNL d   1       1.300  -2.595   2.650  0.00  0.00     0.047 A 
ATOM      3  C   UNL d   1       2.684  -2.337   2.940  0.00  0.00     0.063 A 
ATOM      4  C   UNL d   1       3.338  -1.149   3.590  0.00  0.00     0.073 C 
ATOM      5  N   UNL d   1       3.422  -3.418   2.743  0.00  0.00    -0.170 NA
ATOM      6  N   UNL d   1       2.594  -4.378   2.251  0.00  0.00    -0.210 N 
ENDROOT
BRANCH   2   7
ATOM      7  C   UNL d   1       0.175  -1.694   3.072  0.00  0.00     0.280 C 
BRANCH   7   8
ATOM      8  N   UNL d   1      -1.220  -2.140   2.632  0.00  0.00    -0.060 N 
ATOM      9  H   UNL d   1      -1.026  -3.057   2.204  0.00  0.00     0.280 HD
BRANCH   8  10
ATOM     10  C   UNL d   1      -2.166  -2.405   3.766  0.00  0.00     0.188 A 
ATOM     11  C   UNL d   1      -3.631  -2.057   3.631  0.00  0.00     0.035 A 
ATOM     12  C   UNL d   1      -3.192  -3.487   3.565  0.00  0.00     0.035 A 
ENDBRANCH   8  10
BRANCH   8  13
ATOM     13  C   UNL d   1      -1.821  -1.321   1.525  0.00  0.00     0.269 C 
BRANCH  13  14
ATOM     14  C   UNL d   1      -0.774  -0.648   0.660  0.00  0.00     0.167 C 
BRANCH  14  15
ATOM     15  O   UNL d   1       0.137  -1.628   0.176  0.00  0.00    -0.392 OA
ATOM     16  H   UNL d   1      -0.253  -2.107  -0.576  0.00  0.00     0.210 HD
ENDBRANCH  14  15
BRANCH  14  17
ATOM     17  C   UNL d   1      -1.482   0.106  -0.421  0.00  0.00     0.202 C 
BRANCH  17  18
ATOM     18  O   UNL d   1      -0.501   0.860  -1.110  0.00  0.00    -0.379 OA
BRANCH  18  19
ATOM     19  C   UNL d   1      -1.031   1.664  -2.164  0.00  0.00     0.050 C 
ATOM     20  C   UNL d   1      -1.716   0.756  -3.189  0.00  0.00     0.045 C 
ATOM     21  C   UNL d   1      -1.982   2.720  -1.589  0.00  0.00     0.045 C 
ATOM     22  C   UNL d   1       0.159   2.365  -2.821  0.00  0.00     0.045 C 
ENDBRANCH  18  19
ENDBRANCH  17  18
ENDBRANCH  14  17
ENDBRANCH  13  14
ENDBRANCH   8  13
ENDBRANCH   7   8
ENDBRANCH   2   7
BRANCH   1  23
ATOM     23  O   UNL d   1       0.190  -4.754   2.014  0.00  0.00    -0.288 OA
BRANCH  23  24
ATOM     24  C   UNL d   1      -0.102  -5.933   2.715  0.00  0.00     0.111 A 
ATOM     25  C   UNL d   1      -1.117  -6.737   2.130  0.00  0.00     0.040 A 
ATOM     26  C   UNL d   1      -1.521  -7.979   2.677  0.00  0.00     0.003 A 
ATOM     27  C   UNL d   1      -0.896  -8.464   3.821  0.00  0.00     0.003 A 
ATOM     28  C   UNL d   1       0.066  -7.684   4.418  0.00  0.00     0.039 A 
ATOM     29  C   UNL d   1       0.458  -6.423   3.920  0.00  0.00     0.102 A 
BRANCH  29  30
ATOM     30  O   UNL d   1       1.447  -5.953   4.720  0.00  0.00    -0.353 OA
ATOM     31  C   UNL d   1       1.476  -4.604   5.092  0.00  0.00     0.210 C 
ENDBRANCH  29  30
ENDBRANCH  23  24
ENDBRANCH   1  23
BRANCH   6  32
ATOM     32  C   UNL d   1       3.075  -5.688   2.062  0.00  0.00     0.061 A 
ATOM     33  C   UNL d   1       3.813  -6.344   3.071  0.00  0.00     0.031 A 
ATOM     34  C   UNL d   1       4.261  -7.643   2.871  0.00  0.00     0.002 A 
ATOM     35  C   UNL d   1       4.031  -8.274   1.649  0.00  0.00     0.000 A 
ATOM     36  C   UNL d   1       3.296  -7.618   0.654  0.00  0.00     0.002 A 
ATOM     37  C   UNL d   1       2.785  -6.346   0.869  0.00  0.00     0.031 A 
ENDBRANCH   6  32
TORSDOF 13
