REMARK  4 active torsions:
REMARK  status: ('A' for Active; 'I' for Inactive)
REMARK    1  A    between atoms: C_6  and  N_7 
REMARK    2  A    between atoms: C_8  and  N_7 
REMARK    3  A    between atoms: C_8  and  C_10 
REMARK       I    between atoms: C_10  and  N_12 
REMARK    4  A    between atoms: N_12  and  C_13 
ROOT
ATOM      1  C   UNL d   1      -2.118   4.953  -0.133  0.00  0.00     0.244 C 
ATOM      2  O   UNL d   1      -3.305   4.753  -0.373  0.00  0.00    -0.271 OA
ATOM      3  N   UNL d   1      -1.596   6.230   0.062  0.00  0.00    -0.324 N 
ATOM      4  H   UNL d   1      -0.624   6.386  -0.159  0.00  0.00     0.169 HD
ENDROOT
BRANCH   1   5
ATOM      5  C   UNL d   1      -1.124   3.771   0.002  0.00  0.00     0.170 C 
ATOM      6  C   UNL d   1      -2.044   2.562   0.217  0.00  0.00     0.042 C 
BRANCH   5   7
ATOM      7  N   UNL d   1      -0.239   3.699  -1.185  0.00  0.00    -0.377 N 
ATOM      8  H   UNL d   1       0.007   4.589  -1.605  0.00  0.00     0.160 HD
BRANCH   7   9
ATOM      9  C   UNL d   1       0.291   2.574  -1.797  0.00  0.00     0.029 A 
ATOM     10  C   UNL d   1       0.094   1.266  -1.349  0.00  0.00     0.029 A 
ATOM     11  C   UNL d   1       0.522   0.127  -2.017  0.00  0.00     0.003 A 
ATOM     12  C   UNL d   1       1.269   0.266  -3.158  0.00  0.00     0.007 A 
ATOM     13  C   UNL d   1       1.558   1.547  -3.631  0.00  0.00    -0.060 A 
ATOM     14  C   UNL d   1       2.397   1.682  -4.860  0.00  0.00     0.048 C 
ATOM     15  C   UNL d   1       1.058   2.691  -2.962  0.00  0.00     0.036 A 
ENDBRANCH   7   9
ENDBRANCH   5   7
ENDBRANCH   1   5
BRANCH   3  16
ATOM     16  C   UNL d   1      -2.474   7.351   0.094  0.00  0.00     0.046 A 
ATOM     17  C   UNL d   1      -3.602   7.354   0.949  0.00  0.00    -0.035 A 
ATOM     18  C   UNL d   1      -3.907   6.253   1.933  0.00  0.00     0.050 C 
ATOM     19  C   UNL d   1      -4.491   8.442   0.917  0.00  0.00     0.009 A 
ATOM     20  C   UNL d   1      -4.268   9.521   0.070  0.00  0.00     0.001 A 
ATOM     21  C   UNL d   1      -3.143   9.533  -0.750  0.00  0.00     0.009 A 
ATOM     22  C   UNL d   1      -2.225   8.464  -0.737  0.00  0.00    -0.035 A 
ATOM     23  C   UNL d   1      -1.053   8.515  -1.674  0.00  0.00     0.050 C 
ENDBRANCH   3  16
TORSDOF 4
