@<TRIPOS>MOLECULE
*****
 34 35 0 0 0
SMALL
GASTEIGER

@<TRIPOS>ATOM
      1 C           1.0830    0.0701    0.1437 C.3     1  UNL1        0.0125
      2 C           2.5855   -0.0140    0.0885 C.2     1  UNL1        0.2142
      3 O           3.1196   -0.9188   -0.5581 O.2     1  UNL1       -0.2758
      4 N           3.2654    0.9236    0.8590 N.am    1  UNL1       -0.2834
      5 C           4.6877    0.9711    0.8715 C.ar    1  UNL1        0.0707
      6 C           5.4042    1.1460    2.0736 C.ar    1  UNL1       -0.0168
      7 C           6.8191    1.1186    2.0883 C.ar    1  UNL1        0.0293
      8 N           7.5246    1.2188    3.2809 N.pl3   1  UNL1       -0.3395
      9 C           8.9824    1.2028    3.3188 C.3     1  UNL1        0.0385
     10 C           9.5101    1.2998    4.7215 C.ar    1  UNL1        0.0230
     11 C           9.6601    2.5645    5.3028 C.ar    1  UNL1        0.1294
     12 F           9.3322    3.6623    4.6060 F       1  UNL1       -0.2051
     13 C          10.1553    2.7265    6.5940 C.ar    1  UNL1       -0.0260
     14 C          10.5221    1.6086    7.3357 C.ar    1  UNL1       -0.0577
     15 C          10.3856    0.3373    6.7788 C.ar    1  UNL1       -0.0429
     16 C           9.8788    0.1820    5.4828 C.ar    1  UNL1        0.0484
     17 CL          9.7418   -1.4302    4.8760 Cl      1  UNL1       -0.0831
     18 C           7.4844    0.9729    0.8610 C.ar    1  UNL1       -0.0380
     19 C           6.7879    0.8540   -0.3359 C.ar    1  UNL1       -0.0229
     20 C           5.4048    0.8517   -0.3244 C.ar    1  UNL1        0.1446
     21 F           4.7733    0.8287   -1.5074 F       1  UNL1       -0.2035
     22 H           0.6689   -0.7160   -0.5006 H       1  UNL1        0.0323
     23 H           0.7289    1.0325   -0.2318 H       1  UNL1        0.0323
     24 H           0.7245   -0.1054    1.1605 H       1  UNL1        0.0323
     25 H           2.7604    1.4202    1.5815 H       1  UNL1        0.1549
     26 H           4.8690    1.2393    3.0153 H       1  UNL1        0.0655
     27 H           7.0231    1.3087    4.1551 H       1  UNL1        0.1464
     28 H           9.3861    2.0408    2.7345 H       1  UNL1        0.0512
     29 H           9.3692    0.2962    2.8390 H       1  UNL1        0.0512
     30 H          10.2523    3.7255    7.0087 H       1  UNL1        0.0646
     31 H          10.9126    1.7240    8.3434 H       1  UNL1        0.0619
     32 H          10.6758   -0.5353    7.3605 H       1  UNL1        0.0632
     33 H           8.5682    0.9505    0.8045 H       1  UNL1        0.0637
     34 H           7.3147    0.7681   -1.2791 H       1  UNL1        0.0647
@<TRIPOS>BOND
     1     1     2    1
     2     2     3    2
     3     2     4   am
     4     4     5    1
     5     5     6   ar
     6     6     7   ar
     7     7     8    1
     8     8     9    1
     9     9    10    1
    10    10    11   ar
    11    11    12    1
    12    11    13   ar
    13    13    14   ar
    14    14    15   ar
    15    15    16   ar
    16    10    16   ar
    17    16    17    1
    18     7    18   ar
    19    18    19   ar
    20    19    20   ar
    21     5    20   ar
    22    20    21    1
    23     1    22    1
    24     1    23    1
    25     1    24    1
    26     4    25    1
    27     6    26    1
    28     8    27    1
    29     9    28    1
    30     9    29    1
    31    13    30    1
    32    14    31    1
    33    15    32    1
    34    18    33    1
    35    19    34    1
