REMARK  9 active torsions:
REMARK  status: ('A' for Active; 'I' for Inactive)
REMARK    1  A    between atoms: C_2  and  C_4 
REMARK    2  A    between atoms: C_7  and  N_8 
REMARK       I    between atoms: N_8  and  C_9 
REMARK    3  A    between atoms: C_9  and  C_11 
REMARK       I    between atoms: C_11  and  N_13 
REMARK    4  A    between atoms: N_13  and  N_14 
REMARK    5  A    between atoms: C_15  and  C_16 
REMARK    6  A    between atoms: C_19  and  O_20 
REMARK    7  A    between atoms: O_20  and  C_21 
REMARK    8  A    between atoms: C_21  and  C_22 
REMARK       I    between atoms: C_22  and  N_24 
REMARK    9  A    between atoms: N_24  and  C_25 
ROOT
ATOM      1  C   UNL d   1       3.469  10.110  -7.636  0.00  0.00    -0.017 A 
ATOM      2  C   UNL d   1       3.833  11.455  -7.503  0.00  0.00     0.015 A 
ATOM      3  C   UNL d   1       4.048  12.237  -8.661  0.00  0.00     0.037 A 
ATOM      4  C   UNL d   1       3.950  11.674  -9.945  0.00  0.00     0.069 A 
ATOM      5  C   UNL d   1       3.553  10.347 -10.059  0.00  0.00     0.037 A 
ATOM      6  C   UNL d   1       3.316   9.574  -8.916  0.00  0.00     0.015 A 
ENDROOT
BRANCH   1   7
ATOM      7  C   UNL d   1       3.226   9.203  -6.473  0.00  0.00     0.150 C 
ATOM      8  N   UNL d   1       3.658   7.979  -6.520  0.00  0.00    -0.183 NA
BRANCH   8   9
ATOM      9  N   UNL d   1       3.415   7.129  -5.470  0.00  0.00    -0.239 N 
ATOM     10  C   UNL d   1       3.950   5.832  -5.476  0.00  0.00     0.329 C 
ATOM     11  O   UNL d   1       4.660   5.316  -6.343  0.00  0.00    -0.261 OA
ATOM     12  H   UNL d   1       2.835   7.416  -4.680  0.00  0.00     0.192 HD
BRANCH  10  13
ATOM     13  C   UNL d   1       3.579   5.003  -4.235  0.00  0.00     0.315 C 
ATOM     14  N   UNL d   1       4.112   3.707  -4.156  0.00  0.00    -0.319 N 
ATOM     15  H   UNL d   1       4.677   3.396  -4.945  0.00  0.00     0.169 HD
ATOM     16  O   UNL d   1       2.835   5.564  -3.430  0.00  0.00    -0.262 OA
BRANCH  14  17
ATOM     17  C   UNL d   1       3.841   2.770  -3.117  0.00  0.00     0.035 A 
ATOM     18  C   UNL d   1       4.328   1.454  -3.168  0.00  0.00     0.030 A 
ATOM     19  C   UNL d   1       3.924   0.500  -2.206  0.00  0.00     0.010 A 
ATOM     20  C   UNL d   1       3.094   0.860  -1.132  0.00  0.00    -0.055 A 
ATOM     21  C   UNL d   1       2.695   2.193  -1.049  0.00  0.00     0.010 A 
ATOM     22  C   UNL d   1       3.050   3.116  -2.026  0.00  0.00     0.030 A 
BRANCH  20  23
ATOM     23  C   UNL d   1       2.608  -0.080  -0.041  0.00  0.00     0.010 C 
ATOM     24  C   UNL d   1       1.071  -0.087   0.016  0.00  0.00     0.015 C 
ATOM     25  C   UNL d   1       3.118  -1.512  -0.180  0.00  0.00     0.015 C 
ENDBRANCH  20  23
ENDBRANCH  14  17
ENDBRANCH  10  13
ENDBRANCH   8   9
ENDBRANCH   1   7
BRANCH   4  26
ATOM     26  O   UNL d   1       4.269  12.481 -11.003  0.00  0.00    -0.342 OA
BRANCH  26  27
ATOM     27  C   UNL d   1       4.320  11.906 -12.324  0.00  0.00     0.278 C 
BRANCH  27  28
ATOM     28  C   UNL d   1       4.820  12.967 -13.318  0.00  0.00     0.246 C 
ATOM     29  O   UNL d   1       5.161  14.085 -12.926  0.00  0.00    -0.271 OA
ATOM     30  N   UNL d   1       4.833  12.605 -14.673  0.00  0.00    -0.325 N 
ATOM     31  H   UNL d   1       4.341  11.780 -14.995  0.00  0.00     0.169 HD
BRANCH  30  32
ATOM     32  C   UNL d   1       5.340  13.504 -15.652  0.00  0.00     0.036 A 
ATOM     33  C   UNL d   1       4.704  13.706 -16.883  0.00  0.00     0.029 A 
ATOM     34  C   UNL d   1       5.229  14.639 -17.797  0.00  0.00     0.004 A 
ATOM     35  C   UNL d   1       6.374  15.375 -17.479  0.00  0.00     0.024 A 
ATOM     36  C   UNL d   1       7.025  15.137 -16.276  0.00  0.00     0.036 A 
ATOM     37 CL   UNL d   1       8.479  15.972 -15.893  0.00  0.00    -0.084 Cl
ATOM     38  C   UNL d   1       6.518  14.207 -15.377  0.00  0.00     0.053 A 
ENDBRANCH  30  32
ENDBRANCH  27  28
ENDBRANCH  26  27
ENDBRANCH   4  26
TORSDOF 9
