@<TRIPOS>MOLECULE
*****
 33 34 0 0 0
SMALL
GASTEIGER

@<TRIPOS>ATOM
      1 C           0.3690   -2.3597   -0.0013 C.3     1  UNL1       -0.0387
      2 C           1.0414   -1.0157    0.0118 C.ar    1  UNL1       -0.0365
      3 C           2.4434   -0.9496    0.0100 C.ar    1  UNL1       -0.0571
      4 C           3.1124    0.2806   -0.0249 C.ar    1  UNL1       -0.0493
      5 C           2.3866    1.4731   -0.0854 C.ar    1  UNL1        0.0381
      6 C           3.0136    2.8210   -0.2700 C.2     1  UNL1        0.2483
      7 O           2.2892    3.7705   -0.5696 O.2     1  UNL1       -0.2699
      8 N           4.3963    2.9303   -0.1696 N.am    1  UNL1       -0.2808
      9 C           5.0584    4.1791   -0.0608 C.ar    1  UNL1        0.0458
     10 C           6.2232    4.3487   -0.8359 C.ar    1  UNL1       -0.0397
     11 C           6.9705    5.5281   -0.7639 C.ar    1  UNL1       -0.0600
     12 C           6.5447    6.5637    0.0562 C.ar    1  UNL1       -0.0609
     13 C           5.4003    6.4034    0.8413 C.ar    1  UNL1       -0.0478
     14 C           4.6444    5.2136    0.8105 C.ar    1  UNL1        0.0576
     15 C           3.5165    5.0346    1.7928 C.2     1  UNL1        0.2433
     16 N           3.0102    6.1374    2.4216 N.am    1  UNL1       -0.3253
     17 O           3.0532    3.9439    2.1236 O.2     1  UNL1       -0.2704
     18 C           0.9839    1.4137   -0.0249 C.ar    1  UNL1       -0.0354
     19 C           0.3180    0.1844    0.0131 C.ar    1  UNL1        0.0215
     20 BR         -1.5828    0.2070    0.0175 Br      1  UNL1       -0.0500
     21 H           1.1022   -3.1733   -0.0022 H       1  UNL1        0.0278
     22 H          -0.2409   -2.4722   -0.9040 H       1  UNL1        0.0278
     23 H          -0.2580   -2.4851    0.8867 H       1  UNL1        0.0278
     24 H           3.0319   -1.8655    0.0140 H       1  UNL1        0.0621
     25 H           4.1955    0.2653   -0.0270 H       1  UNL1        0.0625
     26 H           4.9828    2.1129   -0.2279 H       1  UNL1        0.1552
     27 H           6.5292    3.5909   -1.5545 H       1  UNL1        0.0636
     28 H           7.8798    5.6451   -1.3500 H       1  UNL1        0.0618
     29 H           7.1031    7.4966    0.0979 H       1  UNL1        0.0618
     30 H           5.1457    7.2216    1.5034 H       1  UNL1        0.0626
     31 H           3.4466    7.0421    2.4587 H       1  UNL1        0.1453
     32 H           2.2292    5.9579    3.0377 H       1  UNL1        0.1453
     33 H           0.4087    2.3389   -0.0239 H       1  UNL1        0.0636
@<TRIPOS>BOND
     1     1     2    1
     2     2     3   ar
     3     3     4   ar
     4     4     5   ar
     5     5     6    1
     6     6     7    2
     7     6     8   am
     8     8     9    1
     9     9    10   ar
    10    10    11   ar
    11    11    12   ar
    12    12    13   ar
    13    13    14   ar
    14     9    14   ar
    15    14    15    1
    16    15    16   am
    17    15    17    2
    18     5    18   ar
    19    18    19   ar
    20     2    19   ar
    21    19    20    1
    22     1    21    1
    23     1    22    1
    24     1    23    1
    25     3    24    1
    26     4    25    1
    27     8    26    1
    28    10    27    1
    29    11    28    1
    30    12    29    1
    31    13    30    1
    32    16    31    1
    33    16    32    1
    34    18    33    1
