REMARK  8 active torsions:
REMARK  status: ('A' for Active; 'I' for Inactive)
REMARK    1  A    between atoms: O_2  and  C_3 
REMARK    2  A    between atoms: C_3  and  C_5 
REMARK    3  A    between atoms: C_8  and  N_9 
REMARK    4  A    between atoms: C_16  and  N_17 
REMARK    5  A    between atoms: N_17  and  C_18 
REMARK    6  A    between atoms: C_18  and  N_20 
REMARK       I    between atoms: N_20  and  C_21 
REMARK    7  A    between atoms: C_21  and  C_23 
REMARK    8  A    between atoms: C_26  and  C_27 
ROOT
ATOM      1  N   UNL d   1       7.190   1.401  -1.428  0.00  0.00    -0.331 N 
ATOM      2  H   UNL d   1       8.177   1.569  -1.445  0.00  0.00     0.168 HD
ENDROOT
BRANCH   1   3
ATOM      3  C   UNL d   1       6.695   0.999  -0.108  0.00  0.00     0.062 A 
ATOM      4  C   UNL d   1       7.519   0.795   1.038  0.00  0.00     0.057 A 
ATOM      5  C   UNL d   1       6.843   0.484   2.264  0.00  0.00     0.033 A 
ATOM      6  C   UNL d   1       5.442   0.305   2.371  0.00  0.00     0.020 A 
ATOM      7  C   UNL d   1       4.660   0.460   1.252  0.00  0.00     0.041 A 
ATOM      8  C   UNL d   1       5.316   0.774   0.076  0.00  0.00     0.049 A 
BRANCH   4   9
ATOM      9  N   UNL d   1       8.911   0.817   1.045  0.00  0.00    -0.376 N 
ATOM     10  C   UNL d   1       9.723   1.972   0.665  0.00  0.00     0.150 C 
ATOM     11  C   UNL d   1      10.653   1.570  -0.502  0.00  0.00     0.254 C 
ATOM     12  N   UNL d   1      11.490   0.339  -0.158  0.00  0.00    -0.072 N 
ATOM     13  C   UNL d   1      12.334  -0.085  -1.328  0.00  0.00     0.269 C 
ATOM     14  C   UNL d   1      10.613  -0.820   0.353  0.00  0.00     0.254 C 
ATOM     15  H   UNL d   1      12.124   0.602   0.608  0.00  0.00     0.279 HD
ATOM     16  C   UNL d   1       9.687  -0.353   1.506  0.00  0.00     0.150 C 
ENDBRANCH   4   9
BRANCH   7  17
ATOM     17  C   UNL d   1       3.162   0.498   1.259  0.00  0.00     0.293 C 
ATOM     18  O   UNL d   1       2.535   1.035   2.170  0.00  0.00    -0.259 OA
BRANCH  17  19
ATOM     19  O   UNL d   1       2.615  -0.076   0.153  0.00  0.00    -0.323 OA
ATOM     20  C   UNL d   1       1.175  -0.047   0.093  0.00  0.00     0.213 C 
ENDBRANCH  17  19
ENDBRANCH   7  17
ENDBRANCH   1   3
BRANCH   1  21
ATOM     21  C   UNL d   1       6.436   1.678  -2.611  0.00  0.00     0.179 C 
ATOM     22  S   UNL d   1       4.760   1.593  -2.785  0.00  0.00    -0.040 SA
BRANCH  21  23
ATOM     23  N   UNL d   1       7.200   2.052  -3.736  0.00  0.00    -0.299 N 
ATOM     24  C   UNL d   1       6.607   2.370  -4.979  0.00  0.00     0.257 C 
ATOM     25  O   UNL d   1       5.422   2.298  -5.293  0.00  0.00    -0.267 OA
ATOM     26  H   UNL d   1       8.196   2.185  -3.664  0.00  0.00     0.171 HD
BRANCH  24  27
ATOM     27  C   UNL d   1       7.413   2.800  -6.109  0.00  0.00     0.032 A 
ATOM     28  C   UNL d   1       6.857   3.784  -6.946  0.00  0.00     0.018 A 
ATOM     29  C   UNL d   1       7.441   4.052  -8.173  0.00  0.00     0.013 A 
ATOM     30  C   UNL d   1       8.622   3.395  -8.538  0.00  0.00    -0.026 A 
ATOM     31  C   UNL d   1       9.123   2.369  -7.714  0.00  0.00     0.013 A 
ATOM     32  C   UNL d   1       8.513   2.056  -6.504  0.00  0.00     0.018 A 
BRANCH  30  33
ATOM     33  C   UNL d   1       9.333   3.793  -9.751  0.00  0.00    -0.026 A 
ATOM     34  C   UNL d   1       9.787   5.114  -9.904  0.00  0.00     0.012 A 
ATOM     35  C   UNL d   1      10.405   5.521 -11.085  0.00  0.00     0.001 A 
ATOM     36  C   UNL d   1      10.649   4.592 -12.093  0.00  0.00     0.000 A 
ATOM     37  C   UNL d   1      10.230   3.271 -11.942  0.00  0.00     0.001 A 
ATOM     38  C   UNL d   1       9.567   2.876 -10.782  0.00  0.00     0.012 A 
ENDBRANCH  30  33
ENDBRANCH  24  27
ENDBRANCH  21  23
ENDBRANCH   1  21
TORSDOF 8
