@<TRIPOS>MOLECULE
*****
 73 75 0 0 0
SMALL
GASTEIGER

@<TRIPOS>ATOM
      1 C           0.9275    0.0475    0.0473 C.3     1  UNL1       -0.0652
      2 C           2.4486    0.0329    0.0564 C.3     1  UNL1       -0.0528
      3 C           2.9922   -1.1043    0.9266 C.3     1  UNL1       -0.0189
      4 C           4.5251   -1.1212    0.9440 C.3     1  UNL1        0.0896
      5 O           4.9948   -2.2193    1.7459 O.3     1  UNL1       -0.4920
      6 C           6.3602   -2.3132    1.8666 C.ar    1  UNL1        0.1208
      7 C           7.2086   -1.2372    2.1120 C.ar    1  UNL1       -0.0193
      8 C           8.6171   -1.3963    2.2401 C.ar    1  UNL1       -0.0472
      9 C           9.2422   -2.6433    2.1398 C.ar    1  UNL1        0.0253
     10 C          10.7824   -2.7545    2.2407 C.2     1  UNL1        0.1952
     11 O          11.2261   -3.8915    1.9796 O.2     1  UNL1       -0.2868
     12 C          11.8596   -1.7707    2.7411 C.2     1  UNL1        0.0711
     13 C          12.8369   -2.4046    3.4371 C.2     1  UNL1        0.1883
     14 O          13.4580   -3.5603    3.0076 O.2     1  UNL1       -0.5020
     15 C          13.5960   -1.3958    4.2294 C.2     1  UNL1        0.2823
     16 O          13.2648   -0.9390    5.3495 O.2     1  UNL1       -0.2666
     17 N          13.9854   -0.5130    3.2716 N.am    1  UNL1       -0.2835
     18 C          15.3977    0.3604    3.6312 C.3     1  UNL1        0.0208
     19 C          17.0768   -0.2529    3.5432 C.3     1  UNL1        0.0033
     20 C          18.1848    0.9004    3.6356 C.3     1  UNL1       -0.0310
     21 N          19.6963    0.4503    3.6228 N.4     1  UNL1        0.2309
     22 C          20.1673   -0.2018    2.3449 C.3     1  UNL1       -0.0433
     23 C          20.6428    1.6224    3.9165 C.3     1  UNL1       -0.0433
     24 C          12.3109   -0.2858    2.8641 C.3     1  UNL1        0.0842
     25 C          12.1702    0.7184    1.7375 C.ar    1  UNL1       -0.0187
     26 C          11.8248    2.0288    2.1347 C.ar    1  UNL1       -0.0528
     27 C          12.7979    3.0059    1.9940 C.ar    1  UNL1       -0.0162
     28 C          14.0490    2.6190    1.4703 C.ar    1  UNL1        0.1585
     29 O          15.0996    3.4888    1.6146 O.3     1  UNL1       -0.5033
     30 C          14.2650    1.3218    0.9226 C.ar    1  UNL1        0.1616
     31 O          15.5469    0.8255    0.7296 O.3     1  UNL1       -0.4914
     32 C          15.7579   -0.6122    0.7762 C.3     1  UNL1        0.0790
     33 C          13.1806    0.4799    0.8204 C.ar    1  UNL1       -0.0110
     34 C           8.3491   -3.7737    1.9382 C.ar    1  UNL1       -0.0362
     35 C           8.7418   -5.2389    1.8283 C.3     1  UNL1       -0.0389
     36 C           6.9283   -3.5800    1.8159 C.ar    1  UNL1       -0.0164
     37 H           0.5556    0.8631   -0.5814 H       1  UNL1        0.0230
     38 H           0.5322    0.1908    1.0579 H       1  UNL1        0.0230
     39 H           0.5309   -0.8933   -0.3472 H       1  UNL1        0.0230
     40 H           2.8133    0.9985    0.4270 H       1  UNL1        0.0264
     41 H           2.8122   -0.0760   -0.9723 H       1  UNL1        0.0264
     42 H           2.6137   -2.0676    0.5642 H       1  UNL1        0.0298
     43 H           2.6168   -0.9978    1.9522 H       1  UNL1        0.0298
     44 H           4.8657   -0.1631    1.3481 H       1  UNL1        0.0696
     45 H           4.8989   -1.2393   -0.0801 H       1  UNL1        0.0696
     46 H           6.7895   -0.2434    2.2346 H       1  UNL1        0.0654
     47 H           9.1995   -0.5026    2.4173 H       1  UNL1        0.0626
     48 H          12.8301   -3.9953    2.3835 H       1  UNL1        0.2924
     49 H          15.3036    0.6762    4.6676 H       1  UNL1        0.0467
     50 H          15.4730    1.2406    3.0098 H       1  UNL1        0.0467
     51 H          17.3270   -0.7731    2.6137 H       1  UNL1        0.0332
     52 H          17.2655   -0.9940    4.3303 H       1  UNL1        0.0332
     53 H          18.0727    1.4301    4.5835 H       1  UNL1        0.0815
     54 H          18.1080    1.6002    2.7980 H       1  UNL1        0.0815
     55 H          19.8437   -0.2231    4.3868 H       1  UNL1        0.2028
     56 H          20.0663    0.5183    1.5283 H       1  UNL1        0.0777
     57 H          19.5750   -1.0985    2.1745 H       1  UNL1        0.0777
     58 H          21.2231   -0.4824    2.4648 H       1  UNL1        0.0777
     59 H          20.5598    2.3534    3.1056 H       1  UNL1        0.0777
     60 H          21.6724    1.2425    3.9696 H       1  UNL1        0.0777
     61 H          20.3692    2.0632    4.8769 H       1  UNL1        0.0777
     62 H          11.6978    0.0680    3.7079 H       1  UNL1        0.0603
     63 H          10.9374    2.2340    2.7426 H       1  UNL1        0.0622
     64 H          12.6155    3.9932    2.4201 H       1  UNL1        0.0655
     65 H          14.7175    4.3838    1.6659 H       1  UNL1        0.2923
     66 H          16.8157   -0.7878    0.5619 H       1  UNL1        0.0660
     67 H          15.1607   -1.1904    0.0756 H       1  UNL1        0.0660
     68 H          15.5965   -1.0873    1.7507 H       1  UNL1        0.0660
     69 H          13.3300   -0.5589    0.5514 H       1  UNL1        0.0659
     70 H           9.7965   -5.4539    1.9518 H       1  UNL1        0.0278
     71 H           8.4524   -5.6327    0.8449 H       1  UNL1        0.0278
     72 H           8.2268   -5.8343    2.5952 H       1  UNL1        0.0278
     73 H           6.2629   -4.4369    1.6644 H       1  UNL1        0.0657
@<TRIPOS>UNITY_ATOM_ATTR
21 1
charge 1
@<TRIPOS>BOND
     1     1     2    1
     2     2     3    1
     3     3     4    1
     4     4     5    1
     5     5     6    1
     6     6     7   ar
     7     7     8   ar
     8     8     9   ar
     9     9    10    1
    10    10    11    2
    11    10    12    1
    12    12    13    2
    13    13    14    1
    14    13    15    1
    15    15    16    2
    16    15    17   am
    17    17    18    1
    18    18    19    1
    19    19    20    1
    20    20    21    1
    21    21    22    1
    22    21    23    1
    23    17    24    1
    24    12    24    1
    25    24    25    1
    26    25    26   ar
    27    26    27   ar
    28    27    28   ar
    29    28    29    1
    30    28    30   ar
    31    30    31    1
    32    31    32    1
    33    30    33   ar
    34    25    33   ar
    35     9    34   ar
    36    34    35    1
    37    34    36   ar
    38     6    36   ar
    39     1    37    1
    40     1    38    1
    41     1    39    1
    42     2    40    1
    43     2    41    1
    44     3    42    1
    45     3    43    1
    46     4    44    1
    47     4    45    1
    48     7    46    1
    49     8    47    1
    50    14    48    1
    51    18    49    1
    52    18    50    1
    53    19    51    1
    54    19    52    1
    55    20    53    1
    56    20    54    1
    57    21    55    1
    58    22    56    1
    59    22    57    1
    60    22    58    1
    61    23    59    1
    62    23    60    1
    63    23    61    1
    64    24    62    1
    65    26    63    1
    66    27    64    1
    67    29    65    1
    68    32    66    1
    69    32    67    1
    70    32    68    1
    71    33    69    1
    72    35    70    1
    73    35    71    1
    74    35    72    1
    75    36    73    1
