@<TRIPOS>MOLECULE
*****
 35 36 0 0 0
SMALL
GASTEIGER

@<TRIPOS>ATOM
      1 O           1.1222    0.0061   -0.0376 O.2     1  UNL1       -0.2507
      2 C           2.3540   -0.0122   -0.0278 C.2     1  UNL1        0.3229
      3 N           3.0782   -0.9594    0.6340 N.am    1  UNL1       -0.2937
      4 C           2.4195   -2.0213    1.3683 C.3     1  UNL1        0.0384
      5 C           3.3586   -3.0081    2.0264 C.ar    1  UNL1       -0.0287
      6 C           3.0744   -4.3866    1.9781 C.ar    1  UNL1       -0.0543
      7 C           3.9007   -5.3140    2.6207 C.ar    1  UNL1       -0.0247
      8 C           5.0111   -4.8711    3.3296 C.ar    1  UNL1        0.1416
      9 F           5.7907   -5.7769    3.9393 F       1  UNL1       -0.2040
     10 C           5.2985   -3.5111    3.4095 C.ar    1  UNL1        0.0764
     11 CL          6.6639   -2.9577    4.3013 Cl      1  UNL1       -0.0806
     12 C           4.4727   -2.5809    2.7684 C.ar    1  UNL1       -0.0359
     13 N           3.0519    0.9397   -0.6944 N.am    1  UNL1       -0.1781
     14 O           4.4585    0.9675   -0.7171 O.3     1  UNL1       -0.2740
     15 C           4.9108    2.0840   -1.5137 C.3     1  UNL1        0.0983
     16 C           6.4190    2.1279   -1.5047 C.ar    1  UNL1       -0.0197
     17 C           7.1647    0.9413   -1.4958 C.ar    1  UNL1       -0.0563
     18 C           8.5476    0.9760   -1.3270 C.ar    1  UNL1       -0.0614
     19 C           9.2135    2.1981   -1.2787 C.ar    1  UNL1       -0.0617
     20 C           8.4928    3.3874   -1.3693 C.ar    1  UNL1       -0.0614
     21 C           7.1007    3.3544   -1.4810 C.ar    1  UNL1       -0.0563
     22 H           4.0848   -0.9077    0.5525 H       1  UNL1        0.1506
     23 H           1.7593   -2.5445    0.6646 H       1  UNL1        0.0512
     24 H           1.7757   -1.5719    2.1350 H       1  UNL1        0.0512
     25 H           2.1988   -4.7513    1.4422 H       1  UNL1        0.0622
     26 H           3.6830   -6.3774    2.5777 H       1  UNL1        0.0647
     27 H           4.6947   -1.5197    2.8560 H       1  UNL1        0.0636
     28 H           2.5309    1.6559   -1.1842 H       1  UNL1        0.1841
     29 H           4.5171    3.0097   -1.0742 H       1  UNL1        0.0634
     30 H           4.5474    1.9909   -2.5445 H       1  UNL1        0.0634
     31 H           6.6631   -0.0201   -1.5825 H       1  UNL1        0.0621
     32 H           9.1003    0.0477   -1.2111 H       1  UNL1        0.0618
     33 H          10.2945    2.2212   -1.1710 H       1  UNL1        0.0618
     34 H           9.0139    4.3406   -1.3238 H       1  UNL1        0.0618
     35 H           6.5545    4.2943   -1.5247 H       1  UNL1        0.0621
@<TRIPOS>BOND
     1     1     2    2
     2     2     3   am
     3     3     4    1
     4     4     5    1
     5     5     6   ar
     6     6     7   ar
     7     7     8   ar
     8     8     9    1
     9     8    10   ar
    10    10    11    1
    11    10    12   ar
    12     5    12   ar
    13     2    13   am
    14    13    14    1
    15    14    15    1
    16    15    16    1
    17    16    17   ar
    18    17    18   ar
    19    18    19   ar
    20    19    20   ar
    21    20    21   ar
    22    16    21   ar
    23     3    22    1
    24     4    23    1
    25     4    24    1
    26     6    25    1
    27     7    26    1
    28    12    27    1
    29    13    28    1
    30    15    29    1
    31    15    30    1
    32    17    31    1
    33    18    32    1
    34    19    33    1
    35    20    34    1
    36    21    35    1
