REMARK  7 active torsions:
REMARK  status: ('A' for Active; 'I' for Inactive)
REMARK    1  A    between atoms: C_5  and  N_6 
REMARK       I    between atoms: N_6  and  C_7 
REMARK       I    between atoms: C_7  and  N_9 
REMARK    2  A    between atoms: N_9  and  C_10 
REMARK    3  A    between atoms: C_13  and  N_14 
REMARK    4  A    between atoms: C_20  and  C_21 
REMARK       I    between atoms: C_21  and  N_23 
REMARK    5  A    between atoms: N_23  and  C_24 
REMARK    6  A    between atoms: C_24  and  C_25 
REMARK    7  A    between atoms: C_25  and  C_26 
ROOT
ATOM      1  C   UNL d   1      -6.855  -0.832  -0.179  0.00  0.00     0.037 A 
ATOM      2  C   UNL d   1      -7.942  -1.296   0.546  0.00  0.00     0.032 A 
ATOM      3  C   UNL d   1      -9.194  -0.642   0.434  0.00  0.00     0.032 A 
ATOM      4  C   UNL d   1      -9.415   0.501  -0.379  0.00  0.00     0.046 A 
ATOM      5  C   UNL d   1      -8.306   0.961  -1.129  0.00  0.00     0.060 A 
ATOM      6  C   UNL d   1      -7.062   0.289  -0.999  0.00  0.00     0.049 A 
ENDROOT
BRANCH   1   7
ATOM      7  N   UNL d   1      -5.564  -1.471  -0.132  0.00  0.00    -0.309 N 
ATOM      8  C   UNL d   1      -4.412  -0.691  -0.082  0.00  0.00     0.325 C 
ATOM      9  N   UNL d   1      -3.191  -1.365  -0.066  0.00  0.00    -0.309 N 
ATOM     10  O   UNL d   1      -4.514   0.533  -0.044  0.00  0.00    -0.247 OA
ATOM     11  H   UNL d   1      -3.174  -2.374  -0.116  0.00  0.00     0.170 HD
ATOM     12  H   UNL d   1      -5.524  -2.447   0.120  0.00  0.00     0.170 HD
BRANCH   9  13
ATOM     13  C   UNL d   1      -1.913  -0.692  -0.022  0.00  0.00     0.036 A 
ATOM     14  C   UNL d   1      -1.818   0.703   0.021  0.00  0.00     0.030 A 
ATOM     15  C   UNL d   1      -0.603   1.381   0.023  0.00  0.00     0.009 A 
ATOM     16  C   UNL d   1       0.597   0.686   0.000  0.00  0.00    -0.056 A 
ATOM     17  C   UNL d   1       1.873   1.479  -0.015  0.00  0.00     0.049 C 
ATOM     18  C   UNL d   1       0.557  -0.723  -0.004  0.00  0.00    -0.054 A 
ATOM     19  C   UNL d   1      -0.699  -1.402  -0.023  0.00  0.00     0.037 A 
ATOM     20  C   UNL d   1       1.852  -1.495   0.020  0.00  0.00     0.049 C 
ENDBRANCH   9  13
ENDBRANCH   1   7
BRANCH   5  21
ATOM     21  C   UNL d   1      -8.391   2.127  -2.082  0.00  0.00     0.254 C 
ATOM     22  O   UNL d   1      -9.405   2.817  -2.218  0.00  0.00    -0.268 OA
ATOM     23  N   UNL d   1      -7.297   2.448  -2.862  0.00  0.00    -0.356 N 
ATOM     24  H   UNL d   1      -6.394   2.020  -2.740  0.00  0.00     0.162 HD
BRANCH  23  25
ATOM     25  C   UNL d   1      -7.421   3.534  -3.808  0.00  0.00     0.127 C 
BRANCH  25  26
ATOM     26  C   UNL d   1      -6.108   3.821  -4.520  0.00  0.00     0.058 C 
BRANCH  26  27
ATOM     27  C   UNL d   1      -6.246   4.969  -5.483  0.00  0.00    -0.057 A 
ATOM     28  C   UNL d   1      -5.451   6.109  -5.323  0.00  0.00     0.007 A 
ATOM     29  C   UNL d   1      -5.652   7.223  -6.135  0.00  0.00     0.001 A 
ATOM     30  C   UNL d   1      -6.587   7.177  -7.167  0.00  0.00     0.000 A 
ATOM     31  C   UNL d   1      -7.358   6.033  -7.359  0.00  0.00     0.001 A 
ATOM     32  C   UNL d   1      -7.192   4.934  -6.518  0.00  0.00     0.007 A 
ENDBRANCH  26  27
ENDBRANCH  25  26
ENDBRANCH  23  25
ENDBRANCH   5  21
BRANCH   4  33
ATOM     33  N   UNL d   1     -10.714   0.993  -0.423  0.00  0.00    -0.380 N 
ATOM     34  C   UNL d   1     -11.315   1.733   0.693  0.00  0.00     0.123 C 
ATOM     35  C   UNL d   1     -12.743   1.195   0.876  0.00  0.00     0.020 C 
ATOM     36  C   UNL d   1     -13.551   1.257  -0.430  0.00  0.00     0.003 C 
ATOM     37  C   UNL d   1     -12.785   0.635  -1.599  0.00  0.00     0.020 C 
ATOM     38  C   UNL d   1     -11.390   1.232  -1.699  0.00  0.00     0.123 C 
ENDBRANCH   4  33
TORSDOF 7
