REMARK  6 active torsions:
REMARK  status: ('A' for Active; 'I' for Inactive)
REMARK    1  A    between atoms: C_2  and  C_4 
REMARK    2  A    between atoms: C_4  and  C_5 
REMARK       I    between atoms: C_5  and  N_7 
REMARK    3  A    between atoms: N_7  and  C_8 
REMARK    4  A    between atoms: C_11  and  C_12 
REMARK       I    between atoms: C_12  and  N_14 
REMARK    5  A    between atoms: N_14  and  N_15 
REMARK       I    between atoms: N_15  and  C_16 
REMARK    6  A    between atoms: C_16  and  C_18 
ROOT
ATOM      1  C   UNL d   1       6.782   2.689   0.206  0.00  0.00     0.034 A 
ATOM      2  C   UNL d   1       7.503   3.527   1.055  0.00  0.00     0.030 A 
ATOM      3  C   UNL d   1       8.912   3.598   0.949  0.00  0.00     0.019 A 
ATOM      4  C   UNL d   1       9.621   2.810   0.017  0.00  0.00     0.033 A 
ATOM      5  C   UNL d   1       8.879   1.998  -0.843  0.00  0.00     0.019 A 
ATOM      6  C   UNL d   1       7.484   1.934  -0.739  0.00  0.00     0.030 A 
ENDROOT
BRANCH   4   7
ATOM      7  C   UNL d   1      11.130   2.820   0.002  0.00  0.00     0.270 C 
ATOM      8  O   UNL d   1      11.752   3.539   0.792  0.00  0.00    -0.266 OA
ATOM      9  N   UNL d   1      11.787   1.987  -0.898  0.00  0.00    -0.263 N 
ATOM     10  H   UNL d   1      11.336   1.350  -1.549  0.00  0.00     0.190 HD
BRANCH   9  11
ATOM     11  N   UNL d   1      13.199   1.914  -0.877  0.00  0.00    -0.267 N 
ATOM     12  C   UNL d   1      13.859   1.131  -1.811  0.00  0.00     0.240 C 
ATOM     13  O   UNL d   1      13.238   0.423  -2.609  0.00  0.00    -0.271 OA
ATOM     14  H   UNL d   1      13.653   2.544  -0.221  0.00  0.00     0.190 HD
BRANCH  12  15
ATOM     15  C   UNL d   1      15.404   1.123  -1.774  0.00  0.00     0.079 C 
ATOM     16  C   UNL d   1      16.005   2.386  -1.143  0.00  0.00     0.014 C 
ATOM     17  C   UNL d   1      17.526   2.346  -1.039  0.00  0.00     0.001 C 
ATOM     18  C   UNL d   1      17.995   1.097  -0.302  0.00  0.00     0.000 C 
ATOM     19  C   UNL d   1      17.466  -0.158  -0.986  0.00  0.00     0.001 C 
ATOM     20  C   UNL d   1      15.937  -0.144  -1.085  0.00  0.00     0.014 C 
ENDBRANCH  12  15
ENDBRANCH   9  11
ENDBRANCH   4   7
BRANCH   1  21
ATOM     21  N   UNL d   1       5.364   2.618   0.256  0.00  0.00    -0.327 N 
ATOM     22  C   UNL d   1       4.713   1.397   0.154  0.00  0.00     0.222 C 
ATOM     23  O   UNL d   1       5.319   0.326   0.155  0.00  0.00    -0.273 OA
ATOM     24  H   UNL d   1       4.849   3.427   0.580  0.00  0.00     0.169 HD
BRANCH  22  25
ATOM     25  C   UNL d   1       3.185   1.443   0.090  0.00  0.00     0.107 C 
BRANCH  25  26
ATOM     26  C   UNL d   1       2.600   0.021  -0.103  0.00  0.00    -0.014 C 
ATOM     27  C   UNL d   1       1.071   0.024  -0.062  0.00  0.00     0.010 C 
ATOM     28  C   UNL d   1       3.047  -0.602  -1.433  0.00  0.00     0.010 C 
ENDBRANCH  25  26
ENDBRANCH  22  25
ENDBRANCH   1  21
TORSDOF 6
