REMARK  12 active torsions:
REMARK  status: ('A' for Active; 'I' for Inactive)
REMARK    1  A    between atoms: C_2  and  O_3 
REMARK    2  A    between atoms: C_2  and  C_4 
REMARK    3  A    between atoms: C_4  and  N_5 
REMARK    4  A    between atoms: C_4  and  C_17 
REMARK    5  A    between atoms: N_5  and  S_6 
REMARK    6  A    between atoms: S_6  and  C_9 
REMARK    7  A    between atoms: C_17  and  O_19 
REMARK    8  A    between atoms: O_19  and  C_20 
REMARK    9  A    between atoms: C_20  and  C_21 
REMARK       I    between atoms: C_21  and  N_23 
REMARK   10  A    between atoms: N_23  and  C_24 
REMARK   11  A    between atoms: C_24  and  C_25 
REMARK   12  A    between atoms: C_25  and  C_26 
ROOT
ATOM      1  C   UNL d   1       2.976   0.645  -1.312  0.00  0.00     0.199 C 
ENDROOT
BRANCH   1   2
ATOM      2  C   UNL d   1       2.582  -0.212  -0.067  0.00  0.00     0.142 C 
ATOM      3  C   UNL d   1       1.104  -0.401   0.115  0.00  0.00     0.041 C 
BRANCH   2   4
ATOM      4  O   UNL d   1       3.122  -1.532  -0.123  0.00  0.00    -0.394 OA
ATOM      5  H   UNL d   1       2.645  -2.031  -0.807  0.00  0.00     0.210 HD
ENDBRANCH   2   4
ENDBRANCH   1   2
BRANCH   1   6
ATOM      6  N   UNL d   1       2.319   2.062  -1.355  0.00  0.00    -0.199 NA
ATOM      7  H   UNL d   1       2.729   2.530  -2.173  0.00  0.00     0.141 HD
BRANCH   6   8
ATOM      8  S   UNL d   1       0.597   2.163  -1.548  0.00  0.00     0.242 S 
ATOM      9  O   UNL d   1       0.265   1.470  -2.752  0.00  0.00    -0.206 OA
ATOM     10  O   UNL d   1      -0.115   1.934  -0.299  0.00  0.00    -0.206 OA
BRANCH   8  11
ATOM     11  C   UNL d   1       0.144   3.846  -1.729  0.00  0.00     0.076 A 
ATOM     12  C   UNL d   1      -1.243   4.088  -1.639  0.00  0.00     0.026 A 
ATOM     13  C   UNL d   1      -1.716   5.384  -1.527  0.00  0.00     0.027 A 
ATOM     14  C   UNL d   1      -0.801   6.435  -1.507  0.00  0.00     0.055 A 
ATOM     15 CL   UNL d   1      -1.440   8.033  -1.411  0.00  0.00    -0.083 Cl
ATOM     16  C   UNL d   1       0.583   6.178  -1.555  0.00  0.00     0.057 A 
ATOM     17 CL   UNL d   1       1.760   7.439  -1.521  0.00  0.00    -0.083 Cl
ATOM     18  C   UNL d   1       1.065   4.872  -1.630  0.00  0.00     0.050 A 
ENDBRANCH   8  11
ENDBRANCH   6   8
ENDBRANCH   1   6
BRANCH   1  19
ATOM     19  C   UNL d   1       4.547   0.707  -1.294  0.00  0.00     0.280 C 
ATOM     20  O   UNL d   1       5.262   0.276  -0.395  0.00  0.00    -0.263 OA
BRANCH  19  21
ATOM     21  O   UNL d   1       5.089   1.262  -2.422  0.00  0.00    -0.311 OA
BRANCH  21  22
ATOM     22  C   UNL d   1       6.548   1.249  -2.459  0.00  0.00     0.281 C 
BRANCH  22  23
ATOM     23  C   UNL d   1       7.072   1.918  -3.743  0.00  0.00     0.241 C 
ATOM     24  O   UNL d   1       6.307   2.376  -4.590  0.00  0.00    -0.271 OA
ATOM     25  N   UNL d   1       8.453   1.985  -3.896  0.00  0.00    -0.359 N 
ATOM     26  H   UNL d   1       9.082   1.619  -3.191  0.00  0.00     0.162 HD
BRANCH  25  27
ATOM     27  C   UNL d   1       9.015   2.620  -5.082  0.00  0.00     0.127 C 
BRANCH  27  28
ATOM     28  C   UNL d   1      10.550   2.659  -5.126  0.00  0.00     0.053 C 
BRANCH  28  29
ATOM     29  C   UNL d   1      11.034   3.318  -6.401  0.00  0.00    -0.082 C 
ATOM     30  C   UNL d   1      11.563   2.602  -7.412  0.00  0.00    -0.024 C 
ATOM     31  C   UNL d   1      11.960   3.196  -8.733  0.00  0.00     0.027 C 
ATOM     32  C   UNL d   1      12.083   4.718  -8.691  0.00  0.00     0.004 C 
ATOM     33  C   UNL d   1      10.916   5.343  -7.938  0.00  0.00     0.005 C 
ATOM     34  C   UNL d   1      10.847   4.817  -6.504  0.00  0.00     0.034 C 
ENDBRANCH  28  29
ENDBRANCH  27  28
ENDBRANCH  25  27
ENDBRANCH  22  23
ENDBRANCH  21  22
ENDBRANCH  19  21
ENDBRANCH   1  19
TORSDOF 12
