@<TRIPOS>MOLECULE
*****
 59 62 0 0 0
SMALL
GASTEIGER

@<TRIPOS>ATOM
      1 O           1.0252   -0.0749   -0.1245 O.2     1  UNL1       -0.2723
      2 C           2.2497    0.0010   -0.0019 C.2     1  UNL1        0.2488
      3 C           2.9247    0.6952    1.1614 C.3     1  UNL1        0.1009
      4 N           2.0011    1.2919    2.1327 N.ar    1  UNL1       -0.3378
      5 C           1.1466    0.5600    2.9272 C.ar    1  UNL1        0.0062
      6 C           0.4637    1.4277    3.7459 C.ar    1  UNL1       -0.0364
      7 C           0.9344    2.7369    3.4746 C.ar    1  UNL1       -0.0001
      8 C           0.6106    4.0018    4.0065 C.ar    1  UNL1       -0.0526
      9 C           1.2629    5.1389    3.5280 C.ar    1  UNL1       -0.0611
     10 C           2.2226    5.0261    2.5275 C.ar    1  UNL1       -0.0598
     11 C           2.5595    3.7802    1.9787 C.ar    1  UNL1       -0.0376
     12 C           1.9027    2.6358    2.4655 C.ar    1  UNL1        0.0495
     13 N           3.0380   -0.5873   -0.9703 N.am    1  UNL1       -0.2337
     14 N           4.4690   -0.6619   -1.0743 N.am    1  UNL1       -0.2455
     15 C           5.0192   -1.3308   -2.1952 C.2     1  UNL1        0.1533
     16 S           3.9986   -2.0076   -3.3566 S.2     1  UNL1       -0.0170
     17 N           6.4357   -1.3758   -2.2337 N.am    1  UNL1       -0.2627
     18 C           7.2346   -1.9414   -3.2573 C.2     1  UNL1        0.2497
     19 O           6.8016   -2.5086   -4.2645 O.2     1  UNL1       -0.2698
     20 C           8.7231   -1.8370   -3.2038 C.ar    1  UNL1        0.0405
     21 C           9.4617   -2.1809   -2.0723 C.ar    1  UNL1       -0.0494
     22 C          10.8622   -2.1276   -2.1234 C.ar    1  UNL1       -0.0576
     23 C          11.5174   -1.6332   -3.2603 C.ar    1  UNL1       -0.0199
     24 C          10.7939   -1.3131   -4.4106 C.ar    1  UNL1        0.1214
     25 O          11.5310   -0.8229   -5.4625 O.3     1  UNL1       -0.4886
     26 C          10.8055   -0.4418   -6.6424 C.3     1  UNL1        0.1235
     27 C          11.7400    0.2013   -7.6763 C.3     1  UNL1        0.1235
     28 O          10.9938    0.5077   -8.8727 O.3     1  UNL1       -0.4886
     29 C          11.7504    1.1088   -9.8478 C.ar    1  UNL1        0.1207
     30 C          13.0033    0.6345  -10.2340 C.ar    1  UNL1       -0.0199
     31 C          13.7966    1.3820  -11.1059 C.ar    1  UNL1       -0.0583
     32 C          13.2846    2.5312  -11.7032 C.ar    1  UNL1       -0.0615
     33 C          11.9662    2.9094  -11.4543 C.ar    1  UNL1       -0.0583
     34 C          11.2109    2.2201  -10.4991 C.ar    1  UNL1       -0.0199
     35 C           9.4085   -1.5051   -4.3971 C.ar    1  UNL1       -0.0078
     36 H           3.5746    1.4813    0.7720 H       1  UNL1        0.0588
     37 H           3.5261   -0.0352    1.7126 H       1  UNL1        0.0588
     38 H           1.0612   -0.5136    2.8227 H       1  UNL1        0.0809
     39 H          -0.2996    1.1574    4.4640 H       1  UNL1        0.0639
     40 H          -0.1434    4.0917    4.7838 H       1  UNL1        0.0624
     41 H           1.0132    6.1138    3.9400 H       1  UNL1        0.0618
     42 H           2.7149    5.9246    2.1619 H       1  UNL1        0.0618
     43 H           3.3040    3.7235    1.1929 H       1  UNL1        0.0638
     44 H           2.5199   -1.0422   -1.7290 H       1  UNL1        0.1728
     45 H           5.0220   -0.2295   -0.3452 H       1  UNL1        0.1718
     46 H           6.9360   -0.8930   -1.5006 H       1  UNL1        0.1569
     47 H           8.9749   -2.5525   -1.1767 H       1  UNL1        0.0625
     48 H          11.4542   -2.4754   -1.2781 H       1  UNL1        0.0619
     49 H          12.6003   -1.5157   -3.2497 H       1  UNL1        0.0654
     50 H          10.0129    0.2749   -6.3953 H       1  UNL1        0.0731
     51 H          10.3546   -1.3342   -7.0901 H       1  UNL1        0.0731
     52 H          12.5572   -0.4978   -7.8831 H       1  UNL1        0.0731
     53 H          12.1752    1.1209   -7.2618 H       1  UNL1        0.0731
     54 H          13.3765   -0.3163   -9.8689 H       1  UNL1        0.0654
     55 H          14.8128    1.0632  -11.3207 H       1  UNL1        0.0619
     56 H          13.9067    3.1187  -12.3737 H       1  UNL1        0.0618
     57 H          11.5356    3.7506  -11.9920 H       1  UNL1        0.0619
     58 H          10.2102    2.5668  -10.2564 H       1  UNL1        0.0654
     59 H           8.8318   -1.4150   -5.3146 H       1  UNL1        0.0662
@<TRIPOS>BOND
     1     1     2    2
     2     2     3    1
     3     3     4    1
     4     4     5   ar
     5     5     6   ar
     6     6     7   ar
     7     7     8   ar
     8     8     9   ar
     9     9    10   ar
    10    10    11   ar
    11    11    12   ar
    12     7    12   ar
    13     4    12   ar
    14     2    13   am
    15    13    14    1
    16    14    15    1
    17    15    16    2
    18    15    17    1
    19    17    18   am
    20    18    19    2
    21    18    20    1
    22    20    21   ar
    23    21    22   ar
    24    22    23   ar
    25    23    24   ar
    26    24    25    1
    27    25    26    1
    28    26    27    1
    29    27    28    1
    30    28    29    1
    31    29    30   ar
    32    30    31   ar
    33    31    32   ar
    34    32    33   ar
    35    33    34   ar
    36    29    34   ar
    37    24    35   ar
    38    20    35   ar
    39     3    36    1
    40     3    37    1
    41     5    38    1
    42     6    39    1
    43     8    40    1
    44     9    41    1
    45    10    42    1
    46    11    43    1
    47    13    44    1
    48    14    45    1
    49    17    46    1
    50    21    47    1
    51    22    48    1
    52    23    49    1
    53    26    50    1
    54    26    51    1
    55    27    52    1
    56    27    53    1
    57    30    54    1
    58    31    55    1
    59    32    56    1
    60    33    57    1
    61    34    58    1
    62    35    59    1
