REMARK  11 active torsions:
REMARK  status: ('A' for Active; 'I' for Inactive)
REMARK    1  A    between atoms: C_2  and  C_3 
REMARK    2  A    between atoms: C_3  and  C_4 
REMARK    3  A    between atoms: C_4  and  C_5 
REMARK    4  A    between atoms: C_5  and  C_6 
REMARK       I    between atoms: C_6  and  N_8 
REMARK    5  A    between atoms: N_8  and  C_9 
REMARK    6  A    between atoms: C_13  and  N_14 
REMARK    7  A    between atoms: N_14  and  C_15 
REMARK    8  A    between atoms: C_15  and  C_16 
REMARK       I    between atoms: C_16  and  N_18 
REMARK    9  A    between atoms: N_18  and  C_19 
REMARK   10  A    between atoms: C_23  and  C_24 
REMARK       I    between atoms: C_24  and  N_26 
REMARK   11  A    between atoms: N_26  and  C_28 
ROOT
ATOM      1  C   UNL d   1      11.643   2.868   2.495  0.00  0.00     0.239 C 
ATOM      2  O   UNL d   1      12.845   2.664   2.689  0.00  0.00    -0.271 OA
ATOM      3  N   UNL d   1      11.084   4.121   2.188  0.00  0.00    -0.326 N 
ATOM      4  H   UNL d   1      10.077   4.225   2.135  0.00  0.00     0.169 HD
ENDROOT
BRANCH   1   5
ATOM      5  C   UNL d   1      10.661   1.706   2.653  0.00  0.00     0.223 C 
BRANCH   5   6
ATOM      6  N   UNL d   1      11.386   0.482   3.042  0.00  0.00    -0.381 N 
ATOM      7  H   UNL d   1      12.382   0.592   3.223  0.00  0.00     0.160 HD
BRANCH   6   8
ATOM      8  C   UNL d   1      10.739  -0.682   3.403  0.00  0.00     0.030 A 
ATOM      9  C   UNL d   1      11.438  -1.794   3.880  0.00  0.00     0.029 A 
ATOM     10  C   UNL d   1      10.758  -2.960   4.266  0.00  0.00     0.004 A 
ATOM     11  C   UNL d   1       9.365  -3.047   4.140  0.00  0.00     0.029 A 
ATOM     12  C   UNL d   1       8.657  -1.959   3.640  0.00  0.00     0.036 A 
ATOM     13  C   UNL d   1       9.355  -0.805   3.279  0.00  0.00     0.058 A 
BRANCH  12  14
ATOM     14  N   UNL d   1       7.246  -1.978   3.537  0.00  0.00    -0.327 N 
ATOM     15  C   UNL d   1       6.589  -1.365   2.475  0.00  0.00     0.222 C 
ATOM     16  O   UNL d   1       7.156  -0.846   1.523  0.00  0.00    -0.273 OA
ATOM     17  H   UNL d   1       6.733  -2.555   4.189  0.00  0.00     0.169 HD
BRANCH  15  18
ATOM     18  C   UNL d   1       5.070  -1.399   2.549  0.00  0.00     0.103 C 
BRANCH  18  19
ATOM     19  C   UNL d   1       4.498  -0.750   1.281  0.00  0.00     0.009 C 
BRANCH  19  20
ATOM     20  C   UNL d   1       2.977  -0.739   1.259  0.00  0.00     0.000 C 
BRANCH  20  21
ATOM     21  C   UNL d   1       2.458  -0.087  -0.022  0.00  0.00    -0.005 C 
ATOM     22  C   UNL d   1       0.940  -0.077  -0.041  0.00  0.00     0.005 C 
ENDBRANCH  20  21
ENDBRANCH  19  20
ENDBRANCH  18  19
ENDBRANCH  15  18
ENDBRANCH  12  14
ENDBRANCH   6   8
ENDBRANCH   5   6
ENDBRANCH   1   5
BRANCH   3  23
ATOM     23  C   UNL d   1      11.875   5.266   1.880  0.00  0.00     0.035 C 
ATOM     24  C   UNL d   1      11.499   6.575   2.124  0.00  0.00     0.029 C 
ATOM     25  C   UNL d   1      12.356   7.617   1.714  0.00  0.00     0.003 C 
ATOM     26  C   UNL d   1      13.552   7.353   1.012  0.00  0.00     0.017 C 
ATOM     27  C   UNL d   1      13.918   6.038   0.716  0.00  0.00     0.034 C 
ATOM     28  C   UNL d   1      13.098   5.067   1.255  0.00  0.00     0.046 C 
BRANCH  27  29
ATOM     29  C   UNL d   1      15.130   5.734  -0.137  0.00  0.00     0.258 C 
ATOM     30  O   UNL d   1      15.803   6.722  -0.426  0.00  0.00    -0.267 OA
ATOM     31  N   UNL d   1      15.425   4.436  -0.659  0.00  0.00    -0.318 N 
ATOM     32  C   UNL d   1      14.744   3.146  -0.418  0.00  0.00     0.159 C 
BRANCH  31  33
ATOM     33  C   UNL d   1      16.631   4.232  -1.427  0.00  0.00     0.037 A 
ATOM     34  C   UNL d   1      16.627   3.303  -2.485  0.00  0.00     0.029 A 
ATOM     35  C   UNL d   1      17.798   2.926  -3.131  0.00  0.00     0.002 A 
ATOM     36  C   UNL d   1      18.992   3.538  -2.784  0.00  0.00     0.000 A 
ATOM     37  C   UNL d   1      19.017   4.487  -1.760  0.00  0.00     0.002 A 
ATOM     38  C   UNL d   1      17.844   4.829  -1.079  0.00  0.00     0.029 A 
ENDBRANCH  31  33
ENDBRANCH  27  29
ENDBRANCH   3  23
TORSDOF 11
