@<TRIPOS>MOLECULE
*****
 63 66 0 0 0
SMALL
GASTEIGER

@<TRIPOS>ATOM
      1 C           1.0656   -0.0882   -0.0215 C.3     1  UNL1       -0.0639
      2 C           2.5819   -0.0826   -0.0377 C.3     1  UNL1       -0.0399
      3 C           3.1896   -1.2440   -0.8301 C.3     1  UNL1        0.0176
      4 N           4.6500   -1.2552   -0.7770 N.pl3   1  UNL1       -0.2669
      5 C           5.5123   -2.4197   -0.7193 C.2     1  UNL1        0.1771
      6 S           4.9071   -3.9931   -1.1244 S.3     1  UNL1       -0.0795
      7 C           6.2991   -5.2060   -1.0278 C.3     1  UNL1        0.0774
      8 C           5.7965   -6.6788   -1.3615 C.2     1  UNL1        0.2233
      9 O           4.6046   -6.9738   -1.4147 O.2     1  UNL1       -0.2749
     10 N           6.7516   -7.6905   -1.5060 N.am    1  UNL1       -0.3137
     11 C           6.4366   -9.1280   -1.4913 C.3     1  UNL1        0.0224
     12 C           7.6712  -10.0836   -1.1957 C.3     1  UNL1        0.0276
     13 C           8.2810   -9.8093    0.2057 C.2     1  UNL1        0.0165
     14 C           8.5587   -8.6676    0.8644 C.ar    1  UNL1        0.0515
     15 C           8.4983   -7.2718    0.6064 C.ar    1  UNL1       -0.0481
     16 C           8.7154   -6.3706    1.5612 C.ar    1  UNL1       -0.0608
     17 C           9.1479   -6.7670    2.8690 C.ar    1  UNL1       -0.0555
     18 C           9.3451   -8.0517    3.2107 C.ar    1  UNL1        0.0098
     19 C           9.0464   -9.0701    2.2047 C.ar    1  UNL1        0.2086
     20 N           9.1315  -10.3407    2.3314 N.2     1  UNL1       -0.2369
     21 C           8.6636  -10.9456    1.1102 C.3     1  UNL1        0.1667
     22 C           7.3224  -11.5740   -1.5373 C.ar    1  UNL1       -0.0383
     23 C           7.8006  -12.7133   -0.8594 C.ar    1  UNL1       -0.0545
     24 C           7.5909  -14.0226   -1.2513 C.ar    1  UNL1       -0.0197
     25 C           6.8087  -14.2744   -2.3397 C.ar    1  UNL1        0.1201
     26 O           6.7207  -15.5957   -2.6339 O.3     1  UNL1       -0.4951
     27 C           5.9986  -15.8851   -3.8123 C.3     1  UNL1        0.0788
     28 C           6.2238  -13.2025   -3.0056 C.ar    1  UNL1       -0.0197
     29 C           6.5356  -11.8761   -2.6583 C.ar    1  UNL1       -0.0545
     30 N           6.7281   -2.1009   -0.3817 N.2     1  UNL1       -0.1609
     31 N           6.6689   -0.7402   -0.1923 N.pl3   1  UNL1       -0.2229
     32 C           5.5475   -0.1136   -0.8360 C.3     1  UNL1        0.2095
     33 O           5.1081    1.0023   -0.1294 O.3     1  UNL1       -0.3579
     34 H           0.6995    0.7752    0.5461 H       1  UNL1        0.0230
     35 H           0.6765   -0.9954    0.4467 H       1  UNL1        0.0230
     36 H           0.6709   -0.0124   -1.0387 H       1  UNL1        0.0230
     37 H           2.9481   -0.1058    0.9964 H       1  UNL1        0.0278
     38 H           2.8786    0.8724   -0.4807 H       1  UNL1        0.0278
     39 H           2.8650   -1.2075   -1.8744 H       1  UNL1        0.0465
     40 H           2.8153   -2.1747   -0.3898 H       1  UNL1        0.0465
     41 H           6.6521   -5.1948    0.0082 H       1  UNL1        0.0475
     42 H           7.1297   -4.9308   -1.6862 H       1  UNL1        0.0475
     43 H           7.6672   -7.4780   -1.8767 H       1  UNL1        0.1487
     44 H           6.0192   -9.3036   -2.4837 H       1  UNL1        0.0471
     45 H           5.6462   -9.3304   -0.7580 H       1  UNL1        0.0471
     46 H           8.4648   -9.8282   -1.9183 H       1  UNL1        0.0412
     47 H           8.3127   -6.8393   -0.3457 H       1  UNL1        0.0626
     48 H           8.6103   -5.3156    1.3202 H       1  UNL1        0.0618
     49 H           9.3544   -5.9505    3.5506 H       1  UNL1        0.0620
     50 H           9.7038   -8.3270    4.1909 H       1  UNL1        0.0683
     51 H           9.4436  -10.8321    3.1580 H       1  UNL1        0.4459
     52 H           7.7862  -11.5331    1.3971 H       1  UNL1        0.1077
     53 H           9.5199  -11.5008    0.7114 H       1  UNL1        0.1077
     54 H           8.3796  -12.7610    0.0332 H       1  UNL1        0.0622
     55 H           8.0494  -14.8312   -0.6845 H       1  UNL1        0.0654
     56 H           6.0774  -16.9577   -3.9895 H       1  UNL1        0.0660
     57 H           6.4259  -15.3591   -4.6728 H       1  UNL1        0.0660
     58 H           4.9473  -15.6260   -3.6634 H       1  UNL1        0.0660
     59 H           5.5220  -13.3621   -3.8169 H       1  UNL1        0.0654
     60 H           6.1374  -11.1086   -3.3169 H       1  UNL1        0.0622
     61 H           7.4902   -0.1787    0.0094 H       1  UNL1        0.1725
     62 H           5.7330    0.1621   -1.8812 H       1  UNL1        0.1049
     63 H           4.9691    0.7276    0.7870 H       1  UNL1        0.2134
@<TRIPOS>UNITY_ATOM_ATTR
20 1
charge 1
@<TRIPOS>BOND
     1     1     2    1
     2     2     3    1
     3     3     4    1
     4     4     5    1
     5     5     6    1
     6     6     7    1
     7     7     8    1
     8     8     9    2
     9     8    10   am
    10    10    11    1
    11    11    12    1
    12    12    13    1
    13    13    14    2
    14    14    15   ar
    15    15    16   ar
    16    16    17   ar
    17    17    18   ar
    18    18    19   ar
    19    14    19   ar
    20    19    20    2
    21    20    21    1
    22    13    21    1
    23    12    22    1
    24    22    23   ar
    25    23    24   ar
    26    24    25   ar
    27    25    26    1
    28    26    27    1
    29    25    28   ar
    30    28    29   ar
    31    22    29   ar
    32     5    30    2
    33    30    31    1
    34    31    32    1
    35     4    32    1
    36    32    33    1
    37     1    34    1
    38     1    35    1
    39     1    36    1
    40     2    37    1
    41     2    38    1
    42     3    39    1
    43     3    40    1
    44     7    41    1
    45     7    42    1
    46    10    43    1
    47    11    44    1
    48    11    45    1
    49    12    46    1
    50    15    47    1
    51    16    48    1
    52    17    49    1
    53    18    50    1
    54    20    51    1
    55    21    52    1
    56    21    53    1
    57    23    54    1
    58    24    55    1
    59    27    56    1
    60    27    57    1
    61    27    58    1
    62    28    59    1
    63    29    60    1
    64    31    61    1
    65    32    62    1
    66    33    63    1
