REMARK  5 active torsions:
REMARK  status: ('A' for Active; 'I' for Inactive)
REMARK    1  A    between atoms: C_6  and  C_7 
REMARK    2  A    between atoms: C_7  and  N_8 
REMARK       I    between atoms: N_8  and  C_9 
REMARK    3  A    between atoms: C_9  and  C_11 
REMARK    4  A    between atoms: C_11  and  C_12 
REMARK    5  A    between atoms: C_12  and  C_13 
ROOT
ATOM      1  N   UNL d   1       1.760   2.916   0.014  0.00  0.00    -0.357 N 
ATOM      2  C   UNL d   1       2.287   4.179   0.017  0.00  0.00     0.217 C 
ATOM      3  O   UNL d   1       1.590   5.190   0.011  0.00  0.00    -0.274 OA
ATOM      4  H   UNL d   1       2.410   2.155  -0.001  0.00  0.00     0.162 HD
ENDROOT
BRANCH   1   5
ATOM      5  C   UNL d   1       0.335   2.680   0.001  0.00  0.00     0.164 C 
BRANCH   5   6
ATOM      6  C   UNL d   1      -0.042   1.229   0.001  0.00  0.00     0.002 A 
ATOM      7  C   UNL d   1      -1.339   0.741  -0.000  0.00  0.00     0.120 A 
ATOM      8  N   UNL d   1      -1.255  -0.619   0.001  0.00  0.00    -0.288 N 
ATOM      9  N   UNL d   1       0.003  -1.070   0.001  0.00  0.00    -0.180 NA
ATOM     10  H   UNL d   1      -2.009  -1.300   0.001  0.00  0.00     0.188 HD
ATOM     11  C   UNL d   1       0.751   0.040   0.000  0.00  0.00     0.060 A 
ATOM     12  C   UNL d   1       2.228  -0.100  -0.002  0.00  0.00     0.073 C 
ENDBRANCH   5   6
ENDBRANCH   1   5
BRANCH   2  13
ATOM     13  C   UNL d   1       3.808   4.197   0.014  0.00  0.00     0.103 C 
BRANCH  13  14
ATOM     14  C   UNL d   1       4.327   5.635   0.000  0.00  0.00     0.013 C 
BRANCH  14  15
ATOM     15  C   UNL d   1       5.857   5.749  -0.017  0.00  0.00    -0.022 C 
ATOM     16  C   UNL d   1       6.457   5.078  -1.252  0.00  0.00     0.009 C 
ATOM     17  C   UNL d   1       6.263   7.225   0.007  0.00  0.00     0.009 C 
ENDBRANCH  14  15
ENDBRANCH  13  14
ENDBRANCH   2  13
TORSDOF 5
