@<TRIPOS>MOLECULE
*****
 57 59 0 0 0
SMALL
GASTEIGER

@<TRIPOS>ATOM
      1 C           2.5282    1.0739    0.0081 C.3     1  UNL1       -0.0396
      2 C           1.2256    0.3277   -0.0007 C.ar    1  UNL1       -0.0467
      3 C           0.0029    1.0110   -0.0074 C.ar    1  UNL1       -0.0557
      4 C          -1.2017    0.2996   -0.0045 C.ar    1  UNL1       -0.0467
      5 C          -2.5207    1.0230   -0.0053 C.3     1  UNL1       -0.0396
      6 C          -1.1620   -1.1093   -0.0035 C.ar    1  UNL1       -0.0170
      7 C           0.0553   -1.8112   -0.0016 C.ar    1  UNL1        0.1217
      8 O          -0.0323   -3.1833   -0.0042 O.3     1  UNL1       -0.4827
      9 C           1.1783   -3.9577   -0.0086 C.3     1  UNL1        0.1666
     10 C           0.8937   -5.4926   -0.0166 C.2     1  UNL1        0.2667
     11 O          -0.2439   -5.9695   -0.0211 O.2     1  UNL1       -0.2705
     12 N           2.0123   -6.3332   -0.0184 N.am    1  UNL1       -0.2304
     13 N           1.8203   -7.7603   -0.0262 N.am    1  UNL1       -0.2181
     14 C           2.9135   -8.6185   -0.0283 C.2     1  UNL1        0.3162
     15 O           4.0795   -8.2213   -0.0231 O.2     1  UNL1       -0.2513
     16 N           2.5847   -9.9620   -0.0365 N.am    1  UNL1       -0.2939
     17 C           3.5910  -11.0367   -0.0400 C.3     1  UNL1        0.0439
     18 C           3.0602  -12.4775   -0.0318 C.ar    1  UNL1        0.0333
     19 C           1.7015  -12.7868    0.0131 C.ar    1  UNL1       -0.0438
     20 C           1.2604  -14.1161    0.0314 C.ar    1  UNL1        0.0267
     21 C           2.1696  -15.1773    0.0187 C.ar    1  UNL1        0.2718
     22 N           1.8109  -16.4920   -0.0809 N.pl3   1  UNL1       -0.2780
     23 C           0.7904  -16.9431   -1.0300 C.3     1  UNL1        0.0173
     24 C          -0.0091  -17.9803   -0.2571 C.3     1  UNL1       -0.0356
     25 C           1.0516  -18.6578    0.5965 C.3     1  UNL1       -0.0356
     26 C           2.0804  -17.5500    0.9051 C.3     1  UNL1        0.0173
     27 N           3.4725  -14.8474   -0.0201 N.ar    1  UNL1       -0.1978
     28 C           3.9376  -13.5757   -0.0567 C.ar    1  UNL1        0.1757
     29 C           1.2413   -1.0796    0.0033 C.ar    1  UNL1       -0.0170
     30 H           2.3779    2.1579   -0.0080 H       1  UNL1        0.0278
     31 H           3.1203    0.8015   -0.8716 H       1  UNL1        0.0278
     32 H           3.0930    0.8237    0.9121 H       1  UNL1        0.0278
     33 H          -0.0092    2.1006   -0.0137 H       1  UNL1        0.0623
     34 H          -2.3907    2.1116    0.0115 H       1  UNL1        0.0278
     35 H          -3.1060    0.7481    0.8784 H       1  UNL1        0.0278
     36 H          -3.0905    0.7716   -0.9057 H       1  UNL1        0.0278
     37 H          -2.0990   -1.6633   -0.0048 H       1  UNL1        0.0657
     38 H           1.7602   -3.7270    0.8921 H       1  UNL1        0.0795
     39 H           1.7609   -3.7176   -0.9065 H       1  UNL1        0.0795
     40 H           2.9776   -6.0097   -0.0152 H       1  UNL1        0.1729
     41 H           0.8472   -8.0598   -0.0277 H       1  UNL1        0.1744
     42 H           1.6024  -10.1750   -0.0487 H       1  UNL1        0.1506
     43 H           4.2257  -10.8948    0.8446 H       1  UNL1        0.0514
     44 H           4.2260  -10.8929   -0.9241 H       1  UNL1        0.0514
     45 H           0.9404  -12.0134    0.0305 H       1  UNL1        0.0625
     46 H           0.1907  -14.3071    0.0678 H       1  UNL1        0.0698
     47 H           1.3169  -17.4242   -1.8624 H       1  UNL1        0.0465
     48 H           0.1512  -16.1553   -1.4372 H       1  UNL1        0.0465
     49 H          -0.5279  -18.6807   -0.9205 H       1  UNL1        0.0281
     50 H          -0.7592  -17.4962    0.3793 H       1  UNL1        0.0281
     51 H           1.5236  -19.4685    0.0277 H       1  UNL1        0.0281
     52 H           0.6242  -19.1056    1.5009 H       1  UNL1        0.0281
     53 H           3.0931  -17.9423    0.7638 H       1  UNL1        0.0465
     54 H           1.9711  -17.2088    1.9402 H       1  UNL1        0.0465
     55 H           4.1181  -15.6309   -0.0857 H       1  UNL1        0.4542
     56 H           5.0181  -13.4760   -0.1193 H       1  UNL1        0.1379
     57 H           2.2053   -1.5742    0.0107 H       1  UNL1        0.0657
@<TRIPOS>UNITY_ATOM_ATTR
27 1
charge 1
@<TRIPOS>BOND
     1     1     2    1
     2     2     3   ar
     3     3     4   ar
     4     4     5    1
     5     4     6   ar
     6     6     7   ar
     7     7     8    1
     8     8     9    1
     9     9    10    1
    10    10    11    2
    11    10    12   am
    12    12    13    1
    13    13    14   am
    14    14    15    2
    15    14    16   am
    16    16    17    1
    17    17    18    1
    18    18    19   ar
    19    19    20   ar
    20    20    21   ar
    21    21    22    1
    22    22    23    1
    23    23    24    1
    24    24    25    1
    25    25    26    1
    26    22    26    1
    27    21    27   ar
    28    27    28   ar
    29    18    28   ar
    30     7    29   ar
    31     2    29   ar
    32     1    30    1
    33     1    31    1
    34     1    32    1
    35     3    33    1
    36     5    34    1
    37     5    35    1
    38     5    36    1
    39     6    37    1
    40     9    38    1
    41     9    39    1
    42    12    40    1
    43    13    41    1
    44    16    42    1
    45    17    43    1
    46    17    44    1
    47    19    45    1
    48    20    46    1
    49    23    47    1
    50    23    48    1
    51    24    49    1
    52    24    50    1
    53    25    51    1
    54    25    52    1
    55    26    53    1
    56    26    54    1
    57    27    55    1
    58    28    56    1
    59    29    57    1
