@<TRIPOS>MOLECULE
*****
 55 60 0 0 0
SMALL
GASTEIGER

@<TRIPOS>ATOM
      1 N           1.2072   -0.0913   -0.1173 N.pl3   1  UNL1       -0.3437
      2 C           2.5245    0.2770   -0.0102 C.ar    1  UNL1        0.1126
      3 C           3.1020    1.4737    0.3594 C.ar    1  UNL1        0.1033
      4 C           2.5036    2.7763    0.6260 C.2     1  UNL1        0.2498
      5 O           3.1126    3.8013    0.7805 O.2     1  UNL1       -0.2700
      6 N           1.1329    2.7228    0.6538 N.am    1  UNL1       -0.3071
      7 C           0.3586    3.8734    0.8484 C.3     1  UNL1        0.0373
      8 C          -1.1040    3.6025    0.7299 C.ar    1  UNL1       -0.0266
      9 C          -1.8665    2.4152    0.6917 C.ar    1  UNL1       -0.0534
     10 C          -3.2839    2.5190    0.6483 C.ar    1  UNL1       -0.0158
     11 C          -3.7800    3.7821    0.3686 C.ar    1  UNL1        0.1662
     12 C          -2.9092    4.6582   -0.1738 C.ar    1  UNL1        0.1665
     13 C          -1.7609    4.7745    0.5027 C.ar    1  UNL1       -0.0115
     14 O          -3.4788    5.7255   -0.7757 O.3     1  UNL1       -0.4526
     15 C          -4.4576    5.8635    0.2330 C.3     1  UNL1        0.2332
     16 O          -4.9301    4.5040    0.6094 O.3     1  UNL1       -0.4526
     17 C           4.4688    1.2226    0.5582 C.ar    1  UNL1        0.1223
     18 N           5.3190    2.0009    1.2566 N.ar    1  UNL1       -0.2412
     19 C           6.6081    1.7906    1.1470 C.ar    1  UNL1        0.0900
     20 C           7.4010    2.5449    2.0395 C.ar    1  UNL1       -0.0342
     21 C           8.7685    2.7169    1.8984 C.ar    1  UNL1       -0.0596
     22 C           9.3434    2.1047    0.8122 C.ar    1  UNL1       -0.0596
     23 C           8.5628    1.1554    0.0578 C.ar    1  UNL1       -0.0342
     24 C           7.1227    0.8942    0.2037 C.ar    1  UNL1        0.0915
     25 N           6.2162   -0.1044   -0.4110 N.ar    1  UNL1       -0.2258
     26 C           4.8490    0.0581   -0.1069 C.ar    1  UNL1        0.1623
     27 N           3.5766   -0.6622   -0.2614 N.ar    1  UNL1       -0.3076
     28 C           3.0087   -2.0708   -0.4370 C.3     1  UNL1        0.0514
     29 C           3.7699   -3.3390   -0.6186 C.ar    1  UNL1       -0.0277
     30 C           5.0452   -3.2134   -1.1142 C.ar    1  UNL1       -0.0569
     31 C           5.7681   -4.3161   -1.5129 C.ar    1  UNL1       -0.0614
     32 C           5.2639   -5.5955   -1.3210 C.ar    1  UNL1       -0.0617
     33 C           4.0093   -5.7720   -0.7426 C.ar    1  UNL1       -0.0614
     34 C           3.2222   -4.6459   -0.4567 C.ar    1  UNL1       -0.0569
     35 H           0.4121    0.4387    0.1966 H       1  UNL1        0.1437
     36 H           0.8690   -1.0413   -0.2438 H       1  UNL1        0.1437
     37 H           0.6939    1.9634    0.2097 H       1  UNL1        0.1493
     38 H           0.6341    4.5902    0.0565 H       1  UNL1        0.0512
     39 H           0.6005    4.3191    1.8155 H       1  UNL1        0.0512
     40 H          -1.3986    1.4377    0.7483 H       1  UNL1        0.0622
     41 H          -3.8781    1.6187    0.7974 H       1  UNL1        0.0655
     42 H          -1.3541    5.7497    0.7205 H       1  UNL1        0.0658
     43 H          -5.2281    6.5511   -0.1220 H       1  UNL1        0.1166
     44 H          -3.9201    6.3920    1.0505 H       1  UNL1        0.1166
     45 H           6.9141    3.0299    2.8859 H       1  UNL1        0.0639
     46 H           9.3382    3.3265    2.6028 H       1  UNL1        0.0618
     47 H          10.3921    2.3267    0.5924 H       1  UNL1        0.0618
     48 H           9.1503    0.5765   -0.6549 H       1  UNL1        0.0639
     49 H           2.3263   -1.9994   -1.3070 H       1  UNL1        0.0542
     50 H           2.3712   -2.2269    0.4516 H       1  UNL1        0.0542
     51 H           5.4728   -2.2305   -1.2233 H       1  UNL1        0.0621
     52 H           6.7330   -4.1385   -1.9681 H       1  UNL1        0.0618
     53 H           5.8651   -6.4455   -1.6250 H       1  UNL1        0.0618
     54 H           3.6599   -6.7835   -0.5339 H       1  UNL1        0.0618
     55 H           2.1969   -4.8311   -0.1222 H       1  UNL1        0.0621
@<TRIPOS>BOND
     1     1     2    1
     2     2     3   ar
     3     3     4    1
     4     4     5    2
     5     4     6   am
     6     6     7    1
     7     7     8    1
     8     8     9   ar
     9     9    10   ar
    10    10    11   ar
    11    11    12   ar
    12    12    13   ar
    13     8    13   ar
    14    12    14    1
    15    14    15    1
    16    15    16    1
    17    11    16    1
    18     3    17   ar
    19    17    18   ar
    20    18    19   ar
    21    19    20   ar
    22    20    21   ar
    23    21    22   ar
    24    22    23   ar
    25    23    24   ar
    26    19    24   ar
    27    24    25   ar
    28    25    26   ar
    29    17    26   ar
    30    26    27   ar
    31     2    27   ar
    32    27    28    1
    33    28    29    1
    34    29    30   ar
    35    30    31   ar
    36    31    32   ar
    37    32    33   ar
    38    33    34   ar
    39    29    34   ar
    40     1    35    1
    41     1    36    1
    42     6    37    1
    43     7    38    1
    44     7    39    1
    45     9    40    1
    46    10    41    1
    47    13    42    1
    48    15    43    1
    49    15    44    1
    50    20    45    1
    51    21    46    1
    52    22    47    1
    53    23    48    1
    54    28    49    1
    55    28    50    1
    56    30    51    1
    57    31    52    1
    58    32    53    1
    59    33    54    1
    60    34    55    1
