REMARK  3 active torsions:
REMARK  status: ('A' for Active; 'I' for Inactive)
REMARK    1  A    between atoms: C_5  and  C_6 
REMARK       I    between atoms: C_6  and  N_7 
REMARK    2  A    between atoms: C_10  and  N_11 
REMARK       I    between atoms: N_11  and  C_12 
REMARK    3  A    between atoms: C_12  and  C_14 
ROOT
ATOM      1  C   UNL d   1       2.459  -0.342  -0.005  0.00  0.00     0.050 C 
ATOM      2  C   UNL d   1       0.992  -0.083   0.007  0.00  0.00    -0.035 A 
ATOM      3  C   UNL d   1       0.224  -1.256   0.008  0.00  0.00     0.010 A 
ATOM      4  C   UNL d   1      -1.154  -1.217   0.002  0.00  0.00     0.017 A 
ATOM      5  C   UNL d   1      -1.808   0.011  -0.008  0.00  0.00     0.034 A 
ATOM      6  C   UNL d   1      -1.038   1.213   0.002  0.00  0.00     0.047 A 
ATOM      7  C   UNL d   1       0.386   1.192   0.009  0.00  0.00     0.042 A 
ENDROOT
BRANCH   7   8
ATOM      8  N   UNL d   1       1.107   2.452  -0.001  0.00  0.00    -0.322 N 
ATOM      9  C   UNL d   1       2.487   2.654  -0.022  0.00  0.00     0.257 C 
ATOM     10  O   UNL d   1       3.416   1.851   0.042  0.00  0.00    -0.267 OA
ATOM     11  H   UNL d   1       0.519   3.278  -0.034  0.00  0.00     0.169 HD
BRANCH   9  12
ATOM     12  C   UNL d   1       3.078   3.979  -0.113  0.00  0.00     0.051 A 
ATOM     13  C   UNL d   1       2.789   4.959   0.812  0.00  0.00     0.135 A 
ATOM     14  N   UNL d   1       3.537   6.079   0.943  0.00  0.00    -0.246 NA
ATOM     15  C   UNL d   1       4.624   6.201   0.129  0.00  0.00     0.147 A 
ATOM     16 CL   UNL d   1       5.492   7.662   0.387  0.00  0.00    -0.061 Cl
ATOM     17  C   UNL d   1       5.007   5.260  -0.818  0.00  0.00     0.075 A 
ATOM     18 CL   UNL d   1       6.364   5.432  -1.863  0.00  0.00    -0.081 Cl
ATOM     19  C   UNL d   1       4.229   4.119  -0.917  0.00  0.00     0.045 A 
ENDBRANCH   9  12
ENDBRANCH   7   8
BRANCH   5  20
ATOM     20  C   UNL d   1      -3.307   0.049  -0.038  0.00  0.00     0.249 C 
ATOM     21  N   UNL d   1      -3.996  -1.143  -0.056  0.00  0.00    -0.366 N 
ATOM     22  H   UNL d   1      -3.588  -2.065  -0.052  0.00  0.00     0.159 HD
ATOM     23  H   UNL d   1      -5.007  -1.104  -0.081  0.00  0.00     0.159 HD
ATOM     24  O   UNL d   1      -3.918   1.110  -0.052  0.00  0.00    -0.268 OA
ENDBRANCH   5  20
TORSDOF 3
