REMARK  9 active torsions:
REMARK  status: ('A' for Active; 'I' for Inactive)
REMARK    1  A    between atoms: O_2  and  C_3 
REMARK    2  A    between atoms: C_5  and  C_6 
REMARK       I    between atoms: C_6  and  N_8 
REMARK    3  A    between atoms: N_8  and  C_9 
REMARK    4  A    between atoms: C_9  and  N_11 
REMARK    5  A    between atoms: N_11  and  N_12 
REMARK       I    between atoms: N_12  and  C_13 
REMARK    6  A    between atoms: C_13  and  C_15 
REMARK    7  A    between atoms: C_15  and  N_16 
REMARK    8  A    between atoms: C_26  and  O_27 
REMARK    9  A    between atoms: C_29  and  O_30 
ROOT
ATOM      1  C   UNL d   1       8.734  -4.319  -0.360  0.00  0.00     0.193 C 
ATOM      2  S   UNL d   1       9.360  -3.865   1.133  0.00  0.00    -0.039 SA
ENDROOT
BRANCH   1   3
ATOM      3  N   UNL d   1       7.421  -3.892  -0.839  0.00  0.00    -0.298 N 
ATOM      4  C   UNL d   1       6.439  -3.057  -0.149  0.00  0.00     0.258 C 
ATOM      5  O   UNL d   1       6.628  -2.592   0.973  0.00  0.00    -0.267 OA
ATOM      6  H   UNL d   1       7.150  -4.179  -1.766  0.00  0.00     0.171 HD
BRANCH   4   7
ATOM      7  C   UNL d   1       5.104  -2.630  -0.765  0.00  0.00     0.037 A 
ATOM      8  C   UNL d   1       4.259  -1.726  -0.038  0.00  0.00     0.057 A 
ATOM      9  C   UNL d   1       3.103  -1.094  -0.582  0.00  0.00     0.105 A 
ATOM     10  C   UNL d   1       2.768  -1.421  -1.908  0.00  0.00     0.135 A 
ATOM     11  C   UNL d   1       3.562  -2.375  -2.621  0.00  0.00     0.105 A 
ATOM     12  C   UNL d   1       4.691  -2.991  -2.037  0.00  0.00     0.057 A 
BRANCH   9  13
ATOM     13  O   UNL d   1       2.621  -0.096   0.246  0.00  0.00    -0.353 OA
ATOM     14  C   UNL d   1       1.232   0.136   0.473  0.00  0.00     0.210 C 
ENDBRANCH   9  13
BRANCH  10  15
ATOM     15  O   UNL d   1       1.794  -0.911  -2.704  0.00  0.00    -0.351 OA
ATOM     16  C   UNL d   1       0.781  -0.109  -2.212  0.00  0.00     0.210 C 
ENDBRANCH  10  15
BRANCH  11  17
ATOM     17  O   UNL d   1       3.371  -2.770  -3.940  0.00  0.00    -0.353 OA
ATOM     18  C   UNL d   1       2.331  -2.145  -4.700  0.00  0.00     0.210 C 
ENDBRANCH  11  17
ENDBRANCH   4   7
ENDBRANCH   1   3
BRANCH   1  19
ATOM     19  N   UNL d   1       9.519  -5.188  -1.219  0.00  0.00    -0.273 N 
ATOM     20  H   UNL d   1       9.243  -5.492  -2.151  0.00  0.00     0.189 HD
BRANCH  19  21
ATOM     21  N   UNL d   1      10.978  -5.817  -0.695  0.00  0.00    -0.266 N 
ATOM     22  C   UNL d   1      11.856  -6.789  -1.429  0.00  0.00     0.264 C 
ATOM     23  O   UNL d   1      11.498  -7.070  -2.612  0.00  0.00    -0.270 OA
ATOM     24  H   UNL d   1      11.214  -5.379   0.198  0.00  0.00     0.190 HD
BRANCH  22  25
ATOM     25  C   UNL d   1      13.334  -7.483  -0.640  0.00  0.00     0.379 C 
BRANCH  25  26
ATOM     26  N   UNL d   1      14.655  -8.467  -1.297  0.00  0.00     0.129 NA
ATOM     27  C   UNL d   1      15.432  -7.489  -1.941  0.00  0.00     0.286 C 
ATOM     28  C   UNL d   1      15.562  -8.328  -3.006  0.00  0.00     0.021 C 
ATOM     29  C   UNL d   1      16.499  -9.151  -2.415  0.00  0.00    -0.014 A 
ATOM     30  C   UNL d   1      17.721  -9.517  -3.153  0.00  0.00     0.010 A 
ATOM     31  C   UNL d   1      15.981  -9.390  -0.866  0.00  0.00     0.249 A 
ATOM     32  C   UNL d   1      18.819 -10.201  -2.735  0.00  0.00     0.000 A 
ATOM     33  C   UNL d   1      18.664 -10.535  -1.438  0.00  0.00    -0.001 A 
ATOM     34  C   UNL d   1      17.366 -10.187  -0.679  0.00  0.00     0.023 A 
ENDBRANCH  25  26
ENDBRANCH  22  25
ENDBRANCH  19  21
ENDBRANCH   1  19
TORSDOF 9
