@<TRIPOS>MOLECULE
*****
 68 70 0 0 0
SMALL
GASTEIGER

@<TRIPOS>ATOM
      1 O           1.0393    0.2024   -0.0990 O.2     1  UNL1       -0.2754
      2 C           2.2484   -0.0166   -0.0461 C.2     1  UNL1        0.2185
      3 C           2.8233   -1.3819    0.2879 C.3     1  UNL1        0.0248
      4 C           1.8744   -2.5169    0.5664 C.3     1  UNL1       -0.0347
      5 C           2.6461   -3.8102    0.8986 C.3     1  UNL1        0.0454
      6 C           1.6529   -4.9074    1.1728 C.2     1  UNL1        0.3071
      7 O           0.4283   -4.7508    1.1389 O.2     1  UNL1       -0.2509
      8 O           2.2550   -6.0904    1.4588 O.3     1  UNL1       -0.4646
      9 C           1.3065   -7.1421    1.7129 C.3     1  UNL1        0.0928
     10 C           2.0593   -8.4205    2.0275 C.3     1  UNL1       -0.0146
     11 C           1.1128   -9.5889    2.3171 C.3     1  UNL1       -0.0246
     12 C           1.8371  -10.8708    2.6592 C.ar    1  UNL1       -0.0472
     13 C           1.3059  -12.1083    2.2723 C.ar    1  UNL1       -0.0586
     14 C           1.8908  -13.2961    2.7184 C.ar    1  UNL1       -0.0615
     15 C           3.0529  -13.2615    3.4878 C.ar    1  UNL1       -0.0617
     16 C           3.6069  -12.0404    3.8519 C.ar    1  UNL1       -0.0615
     17 C           2.9912  -10.8569    3.4568 C.ar    1  UNL1       -0.0586
     18 N           3.1715    1.0158   -0.3024 N.am    1  UNL1       -0.2676
     19 C           4.5820    1.0667   -0.1915 C.2     1  UNL1        0.1408
     20 S           5.5426   -0.1867    0.4307 S.2     1  UNL1       -0.0182
     21 N           5.1448    2.2849   -0.6278 N.am    1  UNL1       -0.2966
     22 C           6.5621    2.4446   -0.7579 C.ar    1  UNL1        0.0328
     23 C           7.2599    3.5063   -0.1823 C.ar    1  UNL1       -0.0370
     24 C           8.6670    3.5548   -0.2916 C.ar    1  UNL1       -0.0182
     25 C           9.3836    2.5210   -0.9063 C.ar    1  UNL1        0.1206
     26 O          10.7543    2.6290   -0.9047 O.3     1  UNL1       -0.4916
     27 C          11.4291    1.4741   -1.4150 C.3     1  UNL1        0.0935
     28 C          12.9464    1.6136   -1.3134 C.3     1  UNL1        0.0066
     29 C          13.6750    0.4194   -1.8967 C.ar    1  UNL1       -0.0442
     30 C          13.1695   -0.8837   -1.7510 C.ar    1  UNL1       -0.0585
     31 C          13.8848   -1.9907   -2.1971 C.ar    1  UNL1       -0.0615
     32 C          15.0934   -1.8106   -2.8559 C.ar    1  UNL1       -0.0617
     33 C          15.6083   -0.5255   -3.0229 C.ar    1  UNL1       -0.0615
     34 C          14.9119    0.5843   -2.5335 C.ar    1  UNL1       -0.0585
     35 C           8.6778    1.4688   -1.4758 C.ar    1  UNL1       -0.0182
     36 C           7.2899    1.4671   -1.4462 C.ar    1  UNL1       -0.0370
     37 H           3.3838   -1.2656    1.2180 H       1  UNL1        0.0359
     38 H           3.4525   -1.6820   -0.5580 H       1  UNL1        0.0359
     39 H           1.2308   -2.6760   -0.3035 H       1  UNL1        0.0275
     40 H           1.2335   -2.2451    1.4126 H       1  UNL1        0.0275
     41 H           3.2828   -3.6654    1.7817 H       1  UNL1        0.0378
     42 H           3.2881   -4.1000    0.0568 H       1  UNL1        0.0378
     43 H           0.6752   -7.2899    0.8295 H       1  UNL1        0.0697
     44 H           0.6823   -6.8666    2.5725 H       1  UNL1        0.0697
     45 H           2.7045   -8.2120    2.8874 H       1  UNL1        0.0301
     46 H           2.7314   -8.6781    1.2000 H       1  UNL1        0.0301
     47 H           0.4593   -9.7496    1.4494 H       1  UNL1        0.0314
     48 H           0.4583   -9.3431    3.1641 H       1  UNL1        0.0314
     49 H           0.4272  -12.1599    1.6326 H       1  UNL1        0.0620
     50 H           1.4318  -14.2513    2.4783 H       1  UNL1        0.0618
     51 H           3.5255  -14.1847    3.8085 H       1  UNL1        0.0618
     52 H           4.5037  -11.9985    4.4632 H       1  UNL1        0.0618
     53 H           3.4307   -9.9234    3.7942 H       1  UNL1        0.0620
     54 H           2.6802    1.8686   -0.5455 H       1  UNL1        0.1565
     55 H           4.5986    3.1374   -0.5720 H       1  UNL1        0.1538
     56 H           6.7591    4.2591    0.4200 H       1  UNL1        0.0637
     57 H           9.2163    4.3963    0.1243 H       1  UNL1        0.0655
     58 H          11.1693    1.3267   -2.4719 H       1  UNL1        0.0700
     59 H          11.1110    0.6046   -0.8270 H       1  UNL1        0.0700
     60 H          13.2399    1.7262   -0.2624 H       1  UNL1        0.0346
     61 H          13.2510    2.5384   -1.8189 H       1  UNL1        0.0346
     62 H          12.2086   -1.0735   -1.2827 H       1  UNL1        0.0620
     63 H          13.4940   -2.9883   -2.0167 H       1  UNL1        0.0618
     64 H          15.6319   -2.6738   -3.2354 H       1  UNL1        0.0618
     65 H          16.5637   -0.3908   -3.5232 H       1  UNL1        0.0618
     66 H          15.3438    1.5755   -2.6571 H       1  UNL1        0.0620
     67 H           9.1538    0.6203   -1.9548 H       1  UNL1        0.0655
     68 H           6.7836    0.6359   -1.9298 H       1  UNL1        0.0637
@<TRIPOS>BOND
     1     1     2    2
     2     2     3    1
     3     3     4    1
     4     4     5    1
     5     5     6    1
     6     6     7    2
     7     6     8    1
     8     8     9    1
     9     9    10    1
    10    10    11    1
    11    11    12    1
    12    12    13   ar
    13    13    14   ar
    14    14    15   ar
    15    15    16   ar
    16    16    17   ar
    17    12    17   ar
    18     2    18   am
    19    18    19    1
    20    19    20    2
    21    19    21    1
    22    21    22    1
    23    22    23   ar
    24    23    24   ar
    25    24    25   ar
    26    25    26    1
    27    26    27    1
    28    27    28    1
    29    28    29    1
    30    29    30   ar
    31    30    31   ar
    32    31    32   ar
    33    32    33   ar
    34    33    34   ar
    35    29    34   ar
    36    25    35   ar
    37    35    36   ar
    38    22    36   ar
    39     3    37    1
    40     3    38    1
    41     4    39    1
    42     4    40    1
    43     5    41    1
    44     5    42    1
    45     9    43    1
    46     9    44    1
    47    10    45    1
    48    10    46    1
    49    11    47    1
    50    11    48    1
    51    13    49    1
    52    14    50    1
    53    15    51    1
    54    16    52    1
    55    17    53    1
    56    18    54    1
    57    21    55    1
    58    23    56    1
    59    24    57    1
    60    27    58    1
    61    27    59    1
    62    28    60    1
    63    28    61    1
    64    30    62    1
    65    31    63    1
    66    32    64    1
    67    33    65    1
    68    34    66    1
    69    35    67    1
    70    36    68    1
