@<TRIPOS>MOLECULE
*****
 59 63 0 0 0
SMALL
GASTEIGER

@<TRIPOS>ATOM
      1 C           0.7092    2.3787    0.1156 C.3     1  UNL1       -0.0447
      2 C           0.0501    2.6401   -1.2473 C.3     1  UNL1        0.0838
      3 S           0.5578    1.4060   -2.5281 S.3     1  UNL1       -0.0839
      4 C           2.3839    1.5445   -2.5581 C.3     1  UNL1        0.2304
      5 N           2.9298    0.4964   -3.3820 N.pl3   1  UNL1       -0.2188
      6 N           3.6599    0.9589   -4.4002 N.2     1  UNL1       -0.1450
      7 C           3.5627    2.2382   -4.2673 C.2     1  UNL1        0.2423
      8 C           4.1294    3.2502   -5.1364 C.2     1  UNL1        0.0927
      9 C           4.9452    4.2237   -4.7273 C.ar    1  UNL1        0.0600
     10 C           5.5187    4.5731   -3.4765 C.ar    1  UNL1       -0.0477
     11 C           6.2876    5.6708   -3.4115 C.ar    1  UNL1       -0.0608
     12 C           6.5416    6.4959   -4.5839 C.ar    1  UNL1       -0.0555
     13 C           6.0591    6.2187   -5.8107 C.ar    1  UNL1        0.0098
     14 C           5.2168    5.0100   -5.9495 C.ar    1  UNL1        0.2090
     15 N           4.6482    4.5186   -6.9774 N.2     1  UNL1       -0.2364
     16 C           3.8969    3.2892   -6.6081 C.3     1  UNL1        0.1746
     17 O           2.8311    2.7318   -3.2213 O.2     1  UNL1       -0.4425
     18 C          -1.4931    2.5902   -1.0455 C.2     1  UNL1        0.2301
     19 O          -1.9613    2.3478    0.0695 O.2     1  UNL1       -0.2743
     20 N          -2.2914    2.8472   -2.1634 N.am    1  UNL1       -0.2846
     21 C          -3.7128    2.7716   -2.0790 C.ar    1  UNL1        0.0336
     22 C          -4.4000    3.2988   -0.9820 C.ar    1  UNL1       -0.0370
     23 C          -5.7658    3.0511   -0.8002 C.ar    1  UNL1       -0.0182
     24 C          -6.4934    2.3499   -1.7590 C.ar    1  UNL1        0.1211
     25 O          -7.8028    2.1104   -1.4344 O.3     1  UNL1       -0.4874
     26 C          -8.5608    1.3230   -2.3542 C.3     1  UNL1        0.1146
     27 C          -9.9554    1.0667   -1.8268 C.ar    1  UNL1       -0.0104
     28 C         -10.5011   -0.2266   -1.8405 C.ar    1  UNL1       -0.0554
     29 C         -11.8527   -0.4284   -1.5507 C.ar    1  UNL1       -0.0614
     30 C         -12.6448    0.6417   -1.1417 C.ar    1  UNL1       -0.0617
     31 C         -12.0836    1.9102   -1.0135 C.ar    1  UNL1       -0.0614
     32 C         -10.7620    2.1320   -1.4044 C.ar    1  UNL1       -0.0554
     33 C          -5.8439    1.9536   -2.9304 C.ar    1  UNL1       -0.0182
     34 C          -4.4535    2.1343   -3.0782 C.ar    1  UNL1       -0.0370
     35 H           1.7970    2.4641    0.0906 H       1  UNL1        0.0245
     36 H           0.4445    1.3903    0.5133 H       1  UNL1        0.0245
     37 H           0.3580    3.1133    0.8534 H       1  UNL1        0.0245
     38 H           0.3121    3.6442   -1.5953 H       1  UNL1        0.0506
     39 H           2.8215    1.5051   -1.5554 H       1  UNL1        0.1093
     40 H           2.9177   -0.4786   -3.1021 H       1  UNL1        0.1728
     41 H           5.3394    3.9511   -2.6061 H       1  UNL1        0.0626
     42 H           6.7381    5.9640   -2.4660 H       1  UNL1        0.0618
     43 H           7.1633    7.3755   -4.4155 H       1  UNL1        0.0620
     44 H           6.2756    6.8635   -6.6554 H       1  UNL1        0.0683
     45 H           4.7062    4.9354   -7.9098 H       1  UNL1        0.4459
     46 H           4.3366    2.4464   -7.1484 H       1  UNL1        0.1082
     47 H           2.8465    3.4366   -6.8694 H       1  UNL1        0.1082
     48 H          -1.8681    2.6975   -3.0706 H       1  UNL1        0.1548
     49 H          -3.8774    3.8975   -0.2408 H       1  UNL1        0.0637
     50 H          -6.2530    3.3939    0.1100 H       1  UNL1        0.0655
     51 H          -8.0605    0.3643   -2.5392 H       1  UNL1        0.0748
     52 H          -8.6633    1.8674   -3.3015 H       1  UNL1        0.0748
     53 H          -9.8843   -1.0865   -2.0915 H       1  UNL1        0.0621
     54 H         -12.2888   -1.4201   -1.6429 H       1  UNL1        0.0618
     55 H         -13.6964    0.4860   -0.9154 H       1  UNL1        0.0618
     56 H         -12.6789    2.7309   -0.6226 H       1  UNL1        0.0618
     57 H         -10.3611    3.1429   -1.3832 H       1  UNL1        0.0621
     58 H          -6.3877    1.4724   -3.7372 H       1  UNL1        0.0655
     59 H          -3.9701    1.6967   -3.9468 H       1  UNL1        0.0637
@<TRIPOS>UNITY_ATOM_ATTR
15 1
charge 1
@<TRIPOS>BOND
     1     1     2    1
     2     2     3    1
     3     4     5    1
     4     5     6    1
     5     6     7    2
     6     7     8    1
     7     8     9    2
     8     9    10   ar
     9    10    11   ar
    10    11    12   ar
    11    12    13   ar
    12    13    14   ar
    13     9    14   ar
    14    14    15    2
    15    15    16    1
    16     8    16    1
    17     7    17    1
    18     4    17    1
    19     2    18    1
    20    18    19    2
    21    18    20   am
    22    20    21    1
    23    21    22   ar
    24    22    23   ar
    25    23    24   ar
    26    24    25    1
    27    25    26    1
    28    26    27    1
    29    27    28   ar
    30    28    29   ar
    31    29    30   ar
    32    30    31   ar
    33    31    32   ar
    34    27    32   ar
    35    24    33   ar
    36    33    34   ar
    37    21    34   ar
    38     4     3    1
    39     1    35    1
    40     1    36    1
    41     1    37    1
    42     2    38    1
    43     4    39    1
    44     5    40    1
    45    10    41    1
    46    11    42    1
    47    12    43    1
    48    13    44    1
    49    15    45    1
    50    16    46    1
    51    16    47    1
    52    20    48    1
    53    22    49    1
    54    23    50    1
    55    26    51    1
    56    26    52    1
    57    28    53    1
    58    29    54    1
    59    30    55    1
    60    31    56    1
    61    32    57    1
    62    33    58    1
    63    34    59    1
