REMARK  11 active torsions:
REMARK  status: ('A' for Active; 'I' for Inactive)
REMARK    1  A    between atoms: C_2  and  C_3 
REMARK    2  A    between atoms: C_3  and  C_4 
REMARK    3  A    between atoms: C_4  and  C_5 
REMARK       I    between atoms: C_5  and  N_7 
REMARK    4  A    between atoms: N_7  and  C_8 
REMARK    5  A    between atoms: C_11  and  C_12 
REMARK       I    between atoms: C_12  and  N_14 
REMARK    6  A    between atoms: N_14  and  N_15 
REMARK    7  A    between atoms: N_15  and  C_16 
REMARK    8  A    between atoms: C_16  and  N_18 
REMARK       I    between atoms: N_18  and  C_19 
REMARK    9  A    between atoms: C_19  and  C_21 
REMARK   10  A    between atoms: C_25  and  C_26 
REMARK   11  A    between atoms: C_26  and  O_28 
ROOT
ATOM      1  C   UNL d   1       8.509  -5.205  -6.853  0.00  0.00     0.270 C 
ATOM      2  O   UNL d   1       9.379  -6.032  -6.582  0.00  0.00    -0.266 OA
ATOM      3  N   UNL d   1       7.912  -5.158  -8.110  0.00  0.00    -0.264 N 
ATOM      4  H   UNL d   1       7.168  -4.507  -8.349  0.00  0.00     0.190 HD
ENDROOT
BRANCH   3   5
ATOM      5  N   UNL d   1       8.253  -6.082  -9.184  0.00  0.00    -0.273 N 
ATOM      6  H   UNL d   1       8.967  -6.769  -8.948  0.00  0.00     0.189 HD
BRANCH   5   7
ATOM      7  C   UNL d   1       7.591  -5.946 -10.420  0.00  0.00     0.193 C 
ATOM      8  S   UNL d   1       6.427  -4.732 -10.604  0.00  0.00    -0.039 SA
BRANCH   7   9
ATOM      9  N   UNL d   1       7.971  -6.867 -11.427  0.00  0.00    -0.298 N 
ATOM     10  C   UNL d   1       7.486  -6.890 -12.755  0.00  0.00     0.257 C 
ATOM     11  O   UNL d   1       6.623  -6.143 -13.209  0.00  0.00    -0.267 OA
ATOM     12  H   UNL d   1       8.708  -7.520 -11.207  0.00  0.00     0.171 HD
BRANCH  10  13
ATOM     13  C   UNL d   1       8.031  -7.857 -13.755  0.00  0.00     0.033 A 
ATOM     14  C   UNL d   1       8.269  -7.358 -15.054  0.00  0.00     0.017 A 
ATOM     15  C   UNL d   1       8.599  -8.212 -16.108  0.00  0.00     0.002 A 
ATOM     16  C   UNL d   1       8.741  -9.576 -15.865  0.00  0.00     0.017 A 
ATOM     17  C   UNL d   1       8.473 -10.103 -14.588  0.00  0.00     0.040 A 
ATOM     18  C   UNL d   1       8.105  -9.238 -13.532  0.00  0.00     0.034 A 
BRANCH  17  19
ATOM     19  C   UNL d   1       8.560 -11.586 -14.432  0.00  0.00     0.292 C 
ATOM     20  O   UNL d   1       8.905 -12.338 -15.339  0.00  0.00    -0.259 OA
BRANCH  19  21
ATOM     21  O   UNL d   1       8.215 -11.974 -13.181  0.00  0.00    -0.323 OA
ATOM     22  C   UNL d   1       8.280 -13.391 -12.967  0.00  0.00     0.213 C 
ENDBRANCH  19  21
ENDBRANCH  17  19
ENDBRANCH  10  13
ENDBRANCH   7   9
ENDBRANCH   5   7
ENDBRANCH   3   5
BRANCH   1  23
ATOM     23  C   UNL d   1       8.030  -4.216  -5.791  0.00  0.00     0.033 A 
ATOM     24  C   UNL d   1       8.574  -4.273  -4.489  0.00  0.00     0.019 A 
ATOM     25  C   UNL d   1       8.070  -3.474  -3.431  0.00  0.00     0.030 A 
ATOM     26  C   UNL d   1       7.028  -2.577  -3.663  0.00  0.00     0.034 A 
ATOM     27  C   UNL d   1       6.529  -2.470  -4.965  0.00  0.00     0.030 A 
ATOM     28  C   UNL d   1       7.025  -3.268  -6.016  0.00  0.00     0.019 A 
BRANCH  26  29
ATOM     29  N   UNL d   1       6.494  -1.786  -2.609  0.00  0.00    -0.327 N 
ATOM     30  C   UNL d   1       5.120  -1.635  -2.446  0.00  0.00     0.222 C 
ATOM     31  O   UNL d   1       4.289  -2.162  -3.186  0.00  0.00    -0.273 OA
ATOM     32  H   UNL d   1       7.101  -1.549  -1.834  0.00  0.00     0.169 HD
BRANCH  30  33
ATOM     33  C   UNL d   1       4.682  -0.804  -1.241  0.00  0.00     0.103 C 
BRANCH  33  34
ATOM     34  C   UNL d   1       3.146  -0.766  -1.176  0.00  0.00     0.009 C 
BRANCH  34  35
ATOM     35  C   UNL d   1       2.611   0.059  -0.011  0.00  0.00    -0.004 C 
ATOM     36  C   UNL d   1       1.088   0.060  -0.008  0.00  0.00     0.005 C 
ENDBRANCH  34  35
ENDBRANCH  33  34
ENDBRANCH  30  33
ENDBRANCH  26  29
ENDBRANCH   1  23
TORSDOF 11
