@<TRIPOS>MOLECULE
*****
 43 45 0 0 0
SMALL
GASTEIGER

@<TRIPOS>ATOM
      1 C          -3.1575   -1.8899    0.0066 C.3     1  UNL1       -0.0386
      2 C          -2.3266   -0.6493   -0.0045 C.ar    1  UNL1       -0.0360
      3 C          -0.9296   -0.8492   -0.0117 C.ar    1  UNL1       -0.0438
      4 C          -0.0471    0.2222   -0.0037 C.ar    1  UNL1        0.0182
      5 BR          1.8129   -0.1086   -0.0013 Br      1  UNL1       -0.0503
      6 C          -0.5382    1.5178    0.0047 C.ar    1  UNL1       -0.0467
      7 C          -1.9269    1.7300   -0.0005 C.ar    1  UNL1       -0.0470
      8 C          -2.8532    0.6566   -0.0039 C.ar    1  UNL1        0.0114
      9 S          -4.5933    1.1633   -0.0066 S.3     1  UNL1       -0.1136
     10 C          -5.6486   -0.3497   -0.0097 C.3     1  UNL1        0.0957
     11 C          -7.1354   -0.0328   -0.0137 C.2     1  UNL1        0.3178
     12 O          -7.6441    1.0785   -0.0207 O.2     1  UNL1       -0.2499
     13 O          -7.8634   -1.1938   -0.0086 O.3     1  UNL1       -0.4546
     14 C          -9.2972   -1.0195   -0.0077 C.3     1  UNL1        0.1684
     15 C         -10.0143   -2.3854    0.0185 C.2     1  UNL1        0.2549
     16 O          -9.3674   -3.4337    0.0181 O.2     1  UNL1       -0.2717
     17 N         -11.4144   -2.3499    0.0000 N.am    1  UNL1       -0.2826
     18 C         -12.1935   -3.5439    0.0128 C.ar    1  UNL1        0.0356
     19 C         -13.3323   -3.6606   -0.8268 C.ar    1  UNL1       -0.0384
     20 C         -14.0896   -4.8505   -0.8746 C.ar    1  UNL1       -0.0345
     21 C         -13.7096   -5.8696   -0.0331 C.ar    1  UNL1        0.0669
     22 N         -14.2621   -7.1331    0.1620 N.ar    1  UNL1       -0.3061
     23 C         -13.5239   -7.7974    1.1526 C.ar    1  UNL1        0.3250
     24 O         -13.7313   -8.9214    1.5862 O.2     1  UNL1       -0.2468
     25 N         -12.5071   -6.9216    1.5520 N.ar    1  UNL1       -0.3061
     26 C         -12.6185   -5.7441    0.8184 C.ar    1  UNL1        0.0686
     27 C         -11.8408   -4.6086    0.8572 C.ar    1  UNL1       -0.0150
     28 H          -2.5655   -2.8073    0.0139 H       1  UNL1        0.0278
     29 H          -3.7565   -1.9303   -0.9033 H       1  UNL1        0.0278
     30 H          -3.7524   -1.9149    0.9203 H       1  UNL1        0.0278
     31 H          -0.5368   -1.8645   -0.0214 H       1  UNL1        0.0632
     32 H           0.1441    2.3647    0.0141 H       1  UNL1        0.0629
     33 H          -2.2761    2.7633   -0.0010 H       1  UNL1        0.0629
     34 H          -5.4624   -0.9230    0.9007 H       1  UNL1        0.0494
     35 H          -5.4571   -0.9243   -0.9183 H       1  UNL1        0.0494
     36 H          -9.5872   -0.4827   -0.9172 H       1  UNL1        0.0796
     37 H          -9.5849   -0.4569    0.8862 H       1  UNL1        0.0796
     38 H         -11.8847   -1.4904   -0.2607 H       1  UNL1        0.1549
     39 H         -13.6048   -2.8554   -1.5058 H       1  UNL1        0.0637
     40 H         -14.9290   -4.9635   -1.5519 H       1  UNL1        0.0639
     41 H         -15.0585   -7.5383   -0.3016 H       1  UNL1        0.1704
     42 H         -11.8187   -7.1396    2.2536 H       1  UNL1        0.1704
     43 H         -10.9991   -4.5395    1.5347 H       1  UNL1        0.0657
@<TRIPOS>BOND
     1     1     2    1
     2     2     3   ar
     3     3     4   ar
     4     4     5    1
     5     4     6   ar
     6     6     7   ar
     7     7     8   ar
     8     2     8   ar
     9     8     9    1
    10     9    10    1
    11    10    11    1
    12    11    12    2
    13    11    13    1
    14    13    14    1
    15    14    15    1
    16    15    16    2
    17    15    17   am
    18    17    18    1
    19    18    19   ar
    20    19    20   ar
    21    20    21   ar
    22    21    22   ar
    23    22    23   ar
    24    23    24    2
    25    23    25   ar
    26    25    26   ar
    27    21    26   ar
    28    26    27   ar
    29    18    27   ar
    30     1    28    1
    31     1    29    1
    32     1    30    1
    33     3    31    1
    34     6    32    1
    35     7    33    1
    36    10    34    1
    37    10    35    1
    38    14    36    1
    39    14    37    1
    40    17    38    1
    41    19    39    1
    42    20    40    1
    43    22    41    1
    44    25    42    1
    45    27    43    1
