REMARK  3 active torsions:
REMARK  status: ('A' for Active; 'I' for Inactive)
REMARK       I    between atoms: C_2  and  N_3 
REMARK    1  A    between atoms: C_2  and  C_11 
REMARK    2  A    between atoms: N_3  and  N_4 
REMARK    3  A    between atoms: C_5  and  C_6 
ROOT
ATOM      1  O   UNL d   1       0.978   0.099  -0.038  0.00  0.00    -0.264 OA
ATOM      2  C   UNL d   1       2.216   0.049  -0.011  0.00  0.00     0.295 C 
ATOM      3  N   UNL d   1       2.940   0.262   1.171  0.00  0.00    -0.241 N 
ATOM      4  H   UNL d   1       3.953   0.302   1.155  0.00  0.00     0.192 HD
ENDROOT
BRANCH   3   5
ATOM      5  N   UNL d   1       2.237   0.514   2.345  0.00  0.00    -0.182 NA
ATOM      6  C   UNL d   1       2.880   0.879   3.409  0.00  0.00     0.168 C 
BRANCH   6   7
ATOM      7  C   UNL d   1       2.172   1.135   4.657  0.00  0.00     0.051 A 
ATOM      8  C   UNL d   1       1.058   0.488   5.174  0.00  0.00     0.032 A 
ATOM      9  C   UNL d   1       0.736   1.064   6.429  0.00  0.00     0.019 A 
ATOM     10  C   UNL d   1       1.639   2.075   6.650  0.00  0.00     0.088 A 
ATOM     11  N   UNL d   1       2.507   2.107   5.584  0.00  0.00    -0.365 N 
ATOM     12  H   UNL d   1       3.251   2.784   5.485  0.00  0.00     0.165 HD
ENDBRANCH   6   7
ENDBRANCH   3   5
BRANCH   2  13
ATOM     13  C   UNL d   1       2.962  -0.153  -1.248  0.00  0.00     0.144 A 
ATOM     14  C   UNL d   1       2.671   0.314  -2.521  0.00  0.00     0.045 A 
ATOM     15  C   UNL d   1       3.590  -0.277  -3.416  0.00  0.00     0.027 A 
ATOM     16  C   UNL d   1       4.384  -1.095  -2.646  0.00  0.00     0.143 A 
ATOM     17  O   UNL d   1       4.042  -1.002  -1.325  0.00  0.00    -0.317 OA
ENDBRANCH   2  13
TORSDOF 3
