@<TRIPOS>MOLECULE
*****
 51 54 0 0 0
SMALL
GASTEIGER

@<TRIPOS>ATOM
      1 O           6.3959    0.3036   -0.7190 O.2     0  UNK0       -0.2749
      2 C           6.1354    0.7967    0.3862 C.2     0  UNK0        0.2235
      3 C           6.7364    2.1377    0.8548 C.3     0  UNK0        0.0738
      4 S           7.9328    2.7183   -0.4316 S.3     0  UNK0       -0.1035
      5 C           8.6332    4.2322    0.2152 C.3     0  UNK0        0.1727
      6 N           8.0851    4.7262    1.4729 N.3     0  UNK0       -0.2179
      7 N           8.1211    6.1830    1.3601 N.3     0  UNK0       -0.2225
      8 C           8.7076    6.4657    0.0421 C.3     0  UNK0        0.1506
      9 C           8.1511    7.7386   -0.5828 C.ar    0  UNK0       -0.0017
     10 C           8.2648    8.9518    0.1284 C.ar    0  UNK0       -0.0547
     11 C           7.8258   10.1627   -0.4125 C.ar    0  UNK0       -0.0600
     12 C           7.2573   10.1873   -1.6813 C.ar    0  UNK0       -0.0434
     13 C           7.1322    8.9991   -2.4007 C.ar    0  UNK0        0.0414
     14 CL          6.4208    9.0477   -3.9695 Cl      0  UNK0       -0.0835
     15 C           7.5808    7.7831   -1.8667 C.ar    0  UNK0       -0.0364
     16 O           8.5519    5.2937   -0.7441 O.3     0  UNK0       -0.3280
     17 N           5.1917    0.2300    1.2204 N.am    1  TRP1       -0.3064
     18 CA          4.5131   -1.0437    0.8413 C.3     1  TRP1        0.0666
     19 CB          2.9734   -0.9353    0.7877 C.3     1  TRP1       -0.0019
     20 CG          2.3733    0.3893    0.3641 C.ar    1  TRP1       -0.0203
     21 CD1         2.9965    1.5801    0.0557 C.ar    1  TRP1        0.0060
     22 NE1         2.0718    2.5620   -0.1023 N.ar    1  TRP1       -0.3604
     23 CE2         0.8195    2.0322    0.0210 C.ar    1  TRP1        0.0467
     24 CZ2        -0.4192    2.6642   -0.0533 C.ar    1  TRP1       -0.0378
     25 CH2        -1.5481    1.8653    0.1249 C.ar    1  TRP1       -0.0598
     26 CZ3        -1.4366    0.4920    0.3431 C.ar    1  TRP1       -0.0611
     27 CE3        -0.1837   -0.1229    0.4126 C.ar    1  TRP1       -0.0523
     28 CD2         0.9714    0.6661    0.2679 C.ar    1  TRP1        0.0029
     29 C           4.9860   -2.2391    1.7379 C.2     1  TRP1        0.0623
     30 O           4.0811   -2.9385    2.2779 O.co2   1  TRP1       -0.5479
     31 OXT         6.2427   -2.3493    1.8672 O.co2   1  TRP1       -0.5479
     32 H           7.2266    1.9855    1.8208 H       0  UNK0        0.0472
     33 H           5.9315    2.8751    0.9539 H       0  UNK0        0.0472
     34 H           9.7039    4.0271    0.3563 H       0  UNK0        0.0904
     35 H           8.6566    4.3605    2.2366 H       0  UNK0        0.1442
     36 H           8.6839    6.6334    2.0804 H       0  UNK0        0.1437
     37 H           9.7906    6.6236    0.1507 H       0  UNK0        0.0833
     38 H           8.7048    8.9585    1.1230 H       0  UNK0        0.0622
     39 H           7.9294   11.0825    0.1574 H       0  UNK0        0.0618
     40 H           6.9162   11.1300   -2.1017 H       0  UNK0        0.0632
     41 H           7.4872    6.8732   -2.4568 H       0  UNK0        0.0636
     42 H           4.8486    0.6851    2.0543 H       1  TRP1        0.1494
     43 HA          4.8298   -1.3003   -0.1781 H       1  TRP1        0.0563
     44 HB1         2.5952   -1.7184    0.1107 H       1  TRP1        0.0335
     45 HB2         2.5381   -1.1691    1.7689 H       1  TRP1        0.0335
     46 HD1         4.0270    1.8561   -0.0307 H       1  TRP1        0.0810
     47 HE1         2.2967    3.5317   -0.2688 H       1  TRP1        0.1653
     48 HZ2        -0.4943    3.7313   -0.2267 H       1  TRP1        0.0638
     49 HH2        -2.5295    2.3272    0.0952 H       1  TRP1        0.0618
     50 HZ3        -2.3287   -0.1118    0.4755 H       1  TRP1        0.0618
     51 HE3        -0.0946   -1.1914    0.5883 H       1  TRP1        0.0624
@<TRIPOS>UNITY_ATOM_ATTR
31 1
charge -1
@<TRIPOS>BOND
     1     1     2    2
     2     2     3    1
     3     3     4    1
     4     4     5    1
     5     5     6    1
     6     6     7    1
     7     7     8    1
     8     9    10   ar
     9    10    11   ar
    10    11    12   ar
    11    12    13   ar
    12    13    14    1
    13    13    15   ar
    14     9    15   ar
    15     8    16    1
    16     5    16    1
    17     2    17   am
    18    19    20    1
    19    20    21   ar
    20    21    22   ar
    21    22    23   ar
    22    23    24   ar
    23    24    25   ar
    24    25    26   ar
    25    26    27   ar
    26    27    28   ar
    27    20    28   ar
    28    23    28   ar
    29    18    29    1
    30    29    30   ar
    31    29    31   ar
    32     8     9    1
    33    18    19    1
    34    18    17    1
    35     3    32    1
    36     3    33    1
    37     5    34    1
    38     6    35    1
    39     7    36    1
    40     8    37    1
    41    10    38    1
    42    11    39    1
    43    12    40    1
    44    15    41    1
    45    17    42    1
    46    18    43    1
    47    19    44    1
    48    19    45    1
    49    21    46    1
    50    22    47    1
    51    24    48    1
    52    25    49    1
    53    26    50    1
    54    27    51    1
