REMARK  9 active torsions:
REMARK  status: ('A' for Active; 'I' for Inactive)
REMARK    1  A    between atoms: C_2  and  C_3 
REMARK    2  A    between atoms: C_3  and  C_4 
REMARK    3  A    between atoms: C_4  and  C_5 
REMARK    4  A    between atoms: C_5  and  C_6 
REMARK    5  A    between atoms: C_6  and  N_7 
REMARK    6  A    between atoms: C_8  and  S_9 
REMARK    7  A    between atoms: S_9  and  C_10 
REMARK    8  A    between atoms: C_11  and  C_10 
REMARK    9  A    between atoms: C_24  and  C_25 
ROOT
ATOM      1  N   UNL d   1       0.517   8.928  -2.822  0.00  0.00    -0.307 N 
ATOM      2  C   UNL d   1       0.871   7.891  -3.712  0.00  0.00     0.191 A 
ATOM      3  N   UNL d   1       0.357   8.245  -4.885  0.00  0.00    -0.122 NA
ATOM      4  N   UNL d   1      -0.311   9.449  -4.787  0.00  0.00    -0.128 NA
ATOM      5  C   UNL d   1      -0.207   9.899  -3.555  0.00  0.00     0.164 A 
ENDROOT
BRANCH   2   6
ATOM      6  S   UNL d   1       1.803   6.299  -3.714  0.00  0.00    -0.088 SA
BRANCH   6   7
ATOM      7  C   UNL d   1       2.600   5.399  -2.234  0.00  0.00     0.111 C 
BRANCH   7   8
ATOM      8  C   UNL d   1       3.173   3.671  -2.509  0.00  0.00     0.156 C 
ATOM      9  N   UNL d   1       4.284   2.128  -2.070  0.00  0.00    -0.281 N 
ATOM     10  C   UNL d   1       4.416   1.571  -0.874  0.00  0.00     0.013 C 
ATOM     11  H   UNL d   1       3.864   1.264  -2.530  0.00  0.00     0.128 HD
ATOM     12  C   UNL d   1       5.622   1.121   0.015  0.00  0.00     0.021 C 
ATOM     13  C   UNL d   1       3.291   2.273  -0.245  0.00  0.00     0.089 C 
ATOM     14  C   UNL d   1       6.081   2.078   0.852  0.00  0.00    -0.002 C 
ATOM     15  C   UNL d   1       5.511   3.391   0.770  0.00  0.00    -0.019 C 
ATOM     16  C   UNL d   1       4.328   3.603   0.160  0.00  0.00     0.049 C 
ATOM     17  N   UNL d   1       2.109   2.092  -0.928  0.00  0.00    -0.244 NA
ATOM     18  C   UNL d   1       1.921   3.068  -2.186  0.00  0.00     0.217 C 
ATOM     19  H   UNL d   1       1.849   1.246  -1.510  0.00  0.00     0.131 HD
ATOM     20  O   UNL d   1       0.792   3.170  -2.747  0.00  0.00    -0.278 OA
ENDBRANCH   7   8
ENDBRANCH   6   7
ENDBRANCH   2   6
BRANCH   1  21
ATOM     21  C   UNL d   1       0.711   9.090  -1.392  0.00  0.00     0.133 C 
BRANCH  21  22
ATOM     22  C   UNL d   1       0.678   7.762  -0.703  0.00  0.00     0.020 C 
BRANCH  22  23
ATOM     23  C   UNL d   1       0.978   7.778   0.777  0.00  0.00     0.002 C 
BRANCH  23  24
ATOM     24  C   UNL d   1       0.979   6.349   1.321  0.00  0.00    -0.000 C 
BRANCH  24  25
ATOM     25  C   UNL d   1       1.284   6.356   2.811  0.00  0.00    -0.005 C 
ATOM     26  C   UNL d   1       1.270   4.947   3.369  0.00  0.00     0.005 C 
ENDBRANCH  24  25
ENDBRANCH  23  24
ENDBRANCH  22  23
ENDBRANCH  21  22
ENDBRANCH   1  21
BRANCH   5  27
ATOM     27  C   UNL d   1      -0.833  11.156  -3.037  0.00  0.00     0.012 C 
ATOM     28  C   UNL d   1      -0.093  12.161  -2.388  0.00  0.00     0.017 C 
ATOM     29  C   UNL d   1      -0.732  13.239  -1.744  0.00  0.00     0.025 C 
ATOM     30  C   UNL d   1      -2.103  13.421  -1.885  0.00  0.00     0.034 C 
ATOM     31 CL   UNL d   1      -2.894  14.708  -1.059  0.00  0.00    -0.084 Cl
ATOM     32  C   UNL d   1      -2.830  12.543  -2.680  0.00  0.00     0.025 C 
ATOM     33  C   UNL d   1      -2.214  11.384  -3.190  0.00  0.00     0.017 C 
ENDBRANCH   5  27
TORSDOF 9
