@<TRIPOS>MOLECULE
*****
 32 33 0 0 0
SMALL
GASTEIGER

@<TRIPOS>ATOM
      1 O           1.0365   -0.0614   -0.0153 O.2     1  UNL1       -0.2636
      2 C           2.2702   -0.0181   -0.0050 C.2     1  UNL1        0.3153
      3 N           3.0164   -0.5755    1.0304 N.am    1  UNL1       -0.2286
      4 N           2.2906   -1.2358    2.0329 N.pl3   1  UNL1       -0.2627
      5 C           2.9298   -1.8788    3.1029 C.ar    1  UNL1        0.0628
      6 C           4.0670   -1.3287    3.7093 C.ar    1  UNL1       -0.0366
      7 C           4.6572   -1.9386    4.8246 C.ar    1  UNL1       -0.0415
      8 C           4.1457   -3.1347    5.3222 C.ar    1  UNL1        0.0425
      9 CL          4.8670   -3.8621    6.7048 Cl      1  UNL1       -0.0835
     10 C           3.0528   -3.7360    4.7103 C.ar    1  UNL1       -0.0232
     11 C           2.4523   -3.1102    3.6101 C.ar    1  UNL1        0.0646
     12 CL          1.1007   -3.9056    2.8764 Cl      1  UNL1       -0.0815
     13 C           3.0099    0.6886   -1.1680 C.2     1  UNL1        0.3046
     14 O           2.3149    1.2037   -2.0462 O.2     1  UNL1       -0.2648
     15 N           4.4116    0.6718   -1.2042 N.am    1  UNL1       -0.2776
     16 C           5.1117    1.2982   -2.2738 C.ar    1  UNL1        0.0365
     17 C           4.7239    2.5678   -2.7262 C.ar    1  UNL1       -0.0403
     18 C           5.3449    3.1671   -3.8253 C.ar    1  UNL1       -0.0573
     19 C           6.3578    2.4929   -4.4963 C.ar    1  UNL1       -0.0263
     20 C           6.7676    1.2482   -4.0287 C.ar    1  UNL1        0.1252
     21 F           7.7330    0.5944   -4.6904 F       1  UNL1       -0.2054
     22 C           6.1790    0.6553   -2.9055 C.ar    1  UNL1       -0.0052
     23 H           4.0190   -0.6862    1.0233 H       1  UNL1        0.1732
     24 H           1.2894   -1.3928    1.8723 H       1  UNL1        0.1700
     25 H           4.4611   -0.3751    3.3697 H       1  UNL1        0.0637
     26 H           5.5021   -1.4614    5.3156 H       1  UNL1        0.0633
     27 H           2.6640   -4.6773    5.0918 H       1  UNL1        0.0647
     28 H           4.9200    0.0012   -0.6496 H       1  UNL1        0.1553
     29 H           3.9290    3.1119   -2.2207 H       1  UNL1        0.0636
     30 H           5.0179    4.1478   -4.1614 H       1  UNL1        0.0619
     31 H           6.8206    2.9251   -5.3786 H       1  UNL1        0.0646
     32 H           6.5197   -0.3314   -2.6119 H       1  UNL1        0.0665
@<TRIPOS>BOND
     1     1     2    2
     2     2     3   am
     3     3     4    1
     4     4     5    1
     5     5     6   ar
     6     6     7   ar
     7     7     8   ar
     8     8     9    1
     9     8    10   ar
    10    10    11   ar
    11     5    11   ar
    12    11    12    1
    13     2    13    1
    14    13    14    2
    15    13    15   am
    16    15    16    1
    17    16    17   ar
    18    17    18   ar
    19    18    19   ar
    20    19    20   ar
    21    20    21    1
    22    20    22   ar
    23    16    22   ar
    24     3    23    1
    25     4    24    1
    26     6    25    1
    27     7    26    1
    28    10    27    1
    29    15    28    1
    30    17    29    1
    31    18    30    1
    32    19    31    1
    33    22    32    1
