REMARK  8 active torsions:
REMARK  status: ('A' for Active; 'I' for Inactive)
REMARK    1  A    between atoms: C_5  and  O_6 
REMARK    2  A    between atoms: O_6  and  C_7 
REMARK    3  A    between atoms: C_7  and  C_8 
REMARK    4  A    between atoms: C_8  and  C_9 
REMARK    5  A    between atoms: C_9  and  C_10 
REMARK       I    between atoms: C_10  and  N_12 
REMARK    6  A    between atoms: N_12  and  N_13 
REMARK       I    between atoms: N_13  and  C_14 
REMARK       I    between atoms: C_14  and  N_16 
REMARK    7  A    between atoms: N_16  and  C_17 
REMARK    8  A    between atoms: C_17  and  C_18 
ROOT
ATOM      1  C   UNL d   1      -7.803   2.000  -0.138  0.00  0.00     0.236 C 
ATOM      2  O   UNL d   1      -8.257   0.855  -0.149  0.00  0.00    -0.272 OA
ATOM      3  N   UNL d   1      -8.641   3.110  -0.154  0.00  0.00    -0.266 N 
ATOM      4  H   UNL d   1      -8.322   4.077  -0.148  0.00  0.00     0.190 HD
ENDROOT
BRANCH   1   5
ATOM      5  C   UNL d   1      -6.289   2.287  -0.106  0.00  0.00     0.106 C 
BRANCH   5   6
ATOM      6  C   UNL d   1      -5.445   0.992  -0.088  0.00  0.00     0.036 C 
BRANCH   6   7
ATOM      7  C   UNL d   1      -3.930   1.241  -0.054  0.00  0.00     0.176 C 
BRANCH   7   8
ATOM      8  O   UNL d   1      -3.224  -0.013  -0.031  0.00  0.00    -0.351 OA
BRANCH   8   9
ATOM      9  C   UNL d   1      -1.851   0.057  -0.010  0.00  0.00     0.068 A 
ATOM     10  C   UNL d   1      -1.162  -1.162  -0.002  0.00  0.00     0.037 A 
ATOM     11  C   UNL d   1       0.241  -1.195   0.004  0.00  0.00     0.009 A 
ATOM     12  C   UNL d   1       0.978  -0.006   0.002  0.00  0.00    -0.062 A 
ATOM     13  C   UNL d   1       2.478  -0.007  -0.013  0.00  0.00     0.048 C 
ATOM     14  C   UNL d   1       0.288   1.210   0.005  0.00  0.00     0.009 A 
ATOM     15  C   UNL d   1      -1.110   1.240   0.000  0.00  0.00     0.037 A 
ENDBRANCH   8   9
ENDBRANCH   7   8
ENDBRANCH   6   7
ENDBRANCH   5   6
ENDBRANCH   1   5
BRANCH   3  16
ATOM     16  N   UNL d   1     -10.066   2.919  -0.182  0.00  0.00    -0.249 N 
ATOM     17  C   UNL d   1     -10.909   4.018  -0.207  0.00  0.00     0.334 C 
ATOM     18  O   UNL d   1     -10.478   5.173  -0.199  0.00  0.00    -0.246 OA
ATOM     19  N   UNL d   1     -12.258   3.719  -0.246  0.00  0.00    -0.341 N 
ATOM     20  H   UNL d   1     -12.571   2.761  -0.224  0.00  0.00     0.164 HD
ATOM     21  H   UNL d   1     -10.387   1.956  -0.195  0.00  0.00     0.192 HD
BRANCH  19  22
ATOM     22  C   UNL d   1     -13.257   4.778  -0.294  0.00  0.00     0.129 C 
BRANCH  22  23
ATOM     23  C   UNL d   1     -14.681   4.281  -0.309  0.00  0.00     0.003 A 
ATOM     24  C   UNL d   1     -15.495   4.477  -1.575  0.00  0.00     0.007 A 
ATOM     25  C   UNL d   1     -15.181   3.091  -1.097  0.00  0.00     0.007 A 
ENDBRANCH  22  23
ENDBRANCH  19  22
ENDBRANCH   3  16
TORSDOF 8
