REMARK  12 active torsions:
REMARK  status: ('A' for Active; 'I' for Inactive)
REMARK    1  A    between atoms: C_2  and  O_3 
REMARK    2  A    between atoms: O_3  and  C_4 
REMARK    3  A    between atoms: C_8  and  C_7 
REMARK    4  A    between atoms: C_8  and  C_10 
REMARK    5  A    between atoms: C_8  and  O_9 
REMARK    6  A    between atoms: C_10  and  C_11 
REMARK    7  A    between atoms: C_11  and  C_12 
REMARK       I    between atoms: C_12  and  N_14 
REMARK    8  A    between atoms: N_14  and  N_15 
REMARK    9  A    between atoms: C_16  and  C_17 
REMARK   10  A    between atoms: C_19  and  O_20 
REMARK   11  A    between atoms: O_20  and  C_21 
REMARK   12  A    between atoms: C_23  and  O_24 
ROOT
ATOM      1  C   UNL d   1      11.461  -0.043  -2.324  0.00  0.00     0.237 C 
ATOM      2  O   UNL d   1      10.790  -1.056  -2.526  0.00  0.00    -0.272 OA
ATOM      3  N   UNL d   1      12.809   0.083  -2.611  0.00  0.00    -0.247 N 
ATOM      4  H   UNL d   1      13.306   0.875  -2.222  0.00  0.00     0.192 HD
ENDROOT
BRANCH   1   5
ATOM      5  C   UNL d   1      10.870   1.211  -1.697  0.00  0.00     0.107 C 
BRANCH   5   6
ATOM      6  C   UNL d   1       9.356   1.055  -1.553  0.00  0.00     0.046 C 
BRANCH   6   7
ATOM      7  C   UNL d   1       8.681   2.275  -0.932  0.00  0.00     0.151 C 
BRANCH   7   8
ATOM      8  O   UNL d   1       7.270   2.053  -0.905  0.00  0.00    -0.391 OA
ATOM      9  H   UNL d   1       7.099   1.328  -0.280  0.00  0.00     0.210 HD
ENDBRANCH   7   8
BRANCH   7  10
ATOM     10  C   UNL d   1       9.143   2.569   0.477  0.00  0.00    -0.029 A 
ATOM     11  C   UNL d   1       9.130   1.576   1.468  0.00  0.00     0.012 A 
ATOM     12  C   UNL d   1       9.455   1.885   2.788  0.00  0.00     0.037 A 
ATOM     13  C   UNL d   1       9.863   3.172   3.128  0.00  0.00     0.068 A 
ATOM     14  C   UNL d   1       9.940   4.153   2.139  0.00  0.00     0.037 A 
ATOM     15  C   UNL d   1       9.574   3.856   0.823  0.00  0.00     0.012 A 
BRANCH  13  16
ATOM     16  O   UNL d   1      10.263   3.344   4.424  0.00  0.00    -0.352 OA
BRANCH  16  17
ATOM     17  C   UNL d   1       9.938   4.607   5.004  0.00  0.00     0.171 C 
ATOM     18  C   UNL d   1      10.563   4.660   6.387  0.00  0.00     0.034 C 
ENDBRANCH  16  17
ENDBRANCH  13  16
ENDBRANCH   7  10
ENDBRANCH   6   7
ENDBRANCH   5   6
ENDBRANCH   1   5
BRANCH   3  19
ATOM     19  N   UNL d   1      13.522  -1.004  -3.037  0.00  0.00    -0.184 NA
ATOM     20  C   UNL d   1      14.822  -0.950  -3.070  0.00  0.00     0.151 C 
BRANCH  20  21
ATOM     21  C   UNL d   1      15.708   0.158  -2.650  0.00  0.00     0.003 A 
ATOM     22  C   UNL d   1      16.730   0.574  -3.534  0.00  0.00     0.054 A 
ATOM     23  C   UNL d   1      17.620   1.611  -3.173  0.00  0.00     0.102 A 
ATOM     24  C   UNL d   1      17.375   2.293  -1.974  0.00  0.00     0.100 A 
ATOM     25  C   UNL d   1      16.384   1.862  -1.101  0.00  0.00     0.059 A 
ATOM     26  C   UNL d   1      15.590   0.768  -1.399  0.00  0.00     0.025 A 
ATOM     27 BR   UNL d   1      14.443   0.206   0.007  0.00  0.00    -0.050 Br
BRANCH  23  28
ATOM     28  O   UNL d   1      18.669   1.797  -4.047  0.00  0.00    -0.349 OA
BRANCH  28  29
ATOM     29  C   UNL d   1      19.702   2.683  -3.620  0.00  0.00     0.171 C 
ATOM     30  C   UNL d   1      20.909   2.672  -4.529  0.00  0.00     0.034 C 
ENDBRANCH  28  29
ENDBRANCH  23  28
BRANCH  24  31
ATOM     31  O   UNL d   1      18.027   3.380  -1.468  0.00  0.00    -0.358 OA
ATOM     32  H   UNL d   1      18.464   3.894  -2.154  0.00  0.00     0.217 HD
ENDBRANCH  24  31
ENDBRANCH  20  21
ENDBRANCH   3  19
TORSDOF 12
