@<TRIPOS>MOLECULE
*****
 55 57 0 0 0
SMALL
GASTEIGER

@<TRIPOS>ATOM
      1 C           1.4289    0.7529    0.4208 C.3     1  UNL1       -0.0306
      2 C           2.9093    0.6739    0.5937 C.3     1  UNL1        0.0900
      3 O           3.4356    1.0932   -0.6728 O.3     1  UNL1       -0.4614
      4 C           4.4361    0.5954   -1.4486 C.2     1  UNL1        0.3418
      5 O           4.8185    1.2718   -2.3795 O.2     1  UNL1       -0.2449
      6 C           5.1288   -0.6460   -1.0576 C.ar    1  UNL1        0.0910
      7 C           4.5856   -1.8203   -0.5406 C.ar    1  UNL1        0.0860
      8 N           3.2143   -2.2693   -0.3042 N.am    1  UNL1       -0.2905
      9 C           2.0614   -1.8902   -1.0998 C.2     1  UNL1        0.1414
     10 S           2.1825   -1.4391   -2.7219 S.2     1  UNL1       -0.0181
     11 N           0.7726   -1.8530   -0.3924 N.am    1  UNL1       -0.2635
     12 C          -0.3843   -1.0347   -0.7480 C.2     1  UNL1        0.2510
     13 O          -0.3675   -0.1353   -1.5962 O.2     1  UNL1       -0.2698
     14 C          -1.6906   -1.0523   -0.0532 C.ar    1  UNL1        0.0551
     15 C          -1.9625   -1.2714    1.2927 C.ar    1  UNL1       -0.0467
     16 C          -3.3070   -1.3519    1.6878 C.ar    1  UNL1       -0.0429
     17 C          -4.3103   -1.1351    0.7463 C.ar    1  UNL1        0.0276
     18 N          -4.0734   -0.7630   -0.5206 N.ar    1  UNL1       -0.2625
     19 C          -2.7742   -0.7070   -0.8797 C.ar    1  UNL1        0.0397
     20 S           5.9105   -2.8217    0.0496 S.2     1  UNL1       -0.0678
     21 C           7.1609   -1.8803   -0.7113 C.ar    1  UNL1        0.0796
     22 C           8.6209   -2.1960   -0.8166 C.2     1  UNL1        0.2552
     23 O           9.3204   -1.5920   -1.6333 O.2     1  UNL1       -0.2693
     24 N           9.2294   -3.1949   -0.0520 N.am    1  UNL1       -0.2808
     25 C          10.6529   -3.4119   -0.1376 C.ar    1  UNL1        0.0366
     26 C          11.1355   -4.7019   -0.4180 C.ar    1  UNL1       -0.0402
     27 C          12.5162   -4.9564   -0.5078 C.ar    1  UNL1       -0.0600
     28 C          13.4358   -3.9344   -0.2950 C.ar    1  UNL1       -0.0614
     29 C          12.9770   -2.6550    0.0018 C.ar    1  UNL1       -0.0571
     30 C          11.5955   -2.3761    0.0853 C.ar    1  UNL1       -0.0292
     31 C          11.2007   -0.9844    0.5044 C.3     1  UNL1       -0.0380
     32 C           6.5899   -0.7335   -1.2648 C.ar    1  UNL1       -0.0154
     33 C           7.3443    0.3604   -2.0098 C.3     1  UNL1       -0.0376
     34 H           0.8812    0.1700    1.1680 H       1  UNL1        0.0262
     35 H           1.3294    0.3637   -0.5743 H       1  UNL1        0.0262
     36 H           0.9703    1.7287    0.2789 H       1  UNL1        0.0262
     37 H           3.1976   -0.3281    0.9022 H       1  UNL1        0.0695
     38 H           3.2080    1.3773    1.3560 H       1  UNL1        0.0695
     39 H           3.1255   -2.9669    0.4262 H       1  UNL1        0.1543
     40 H           0.6817   -2.3669    0.4715 H       1  UNL1        0.1568
     41 H          -1.1800   -1.3517    2.0399 H       1  UNL1        0.0626
     42 H          -3.5844   -1.6008    2.7073 H       1  UNL1        0.0633
     43 H          -5.3621   -1.2565    0.9851 H       1  UNL1        0.0829
     44 H          -2.6134   -0.3598   -1.9019 H       1  UNL1        0.0837
     45 H           8.6456   -3.9698    0.2212 H       1  UNL1        0.1552
     46 H          10.4532   -5.5198   -0.6308 H       1  UNL1        0.0636
     47 H          12.8805   -5.9525   -0.7524 H       1  UNL1        0.0618
     48 H          14.5054   -4.1271   -0.3541 H       1  UNL1        0.0618
     49 H          13.7071   -1.8681    0.1875 H       1  UNL1        0.0621
     50 H          12.0762   -0.3669    0.7293 H       1  UNL1        0.0278
     51 H          10.5826   -1.0349    1.4050 H       1  UNL1        0.0278
     52 H          10.6691   -0.4456   -0.2787 H       1  UNL1        0.0278
     53 H           8.4249    0.2617   -2.0745 H       1  UNL1        0.0278
     54 H           7.1800    1.3284   -1.5258 H       1  UNL1        0.0278
     55 H           6.9893    0.3983   -3.0460 H       1  UNL1        0.0278
@<TRIPOS>BOND
     1     1     2    1
     2     2     3    1
     3     3     4    1
     4     4     5    2
     5     4     6    1
     6     6     7   ar
     7     7     8    1
     8     8     9    1
     9     9    10    2
    10     9    11    1
    11    11    12   am
    12    12    13    2
    13    12    14    1
    14    14    15   ar
    15    15    16   ar
    16    16    17   ar
    17    17    18   ar
    18    18    19   ar
    19    14    19   ar
    20     7    20   ar
    21    20    21   ar
    22    21    22    1
    23    22    23    2
    24    22    24   am
    25    24    25    1
    26    25    26   ar
    27    26    27   ar
    28    27    28   ar
    29    28    29   ar
    30    29    30   ar
    31    25    30   ar
    32    30    31    1
    33    21    32   ar
    34     6    32   ar
    35    32    33    1
    36     1    34    1
    37     1    35    1
    38     1    36    1
    39     2    37    1
    40     2    38    1
    41     8    39    1
    42    11    40    1
    43    15    41    1
    44    16    42    1
    45    17    43    1
    46    19    44    1
    47    24    45    1
    48    26    46    1
    49    27    47    1
    50    28    48    1
    51    29    49    1
    52    31    50    1
    53    31    51    1
    54    31    52    1
    55    33    53    1
    56    33    54    1
    57    33    55    1
