@<TRIPOS>MOLECULE
*****
 56 59 0 0 0
SMALL
GASTEIGER

@<TRIPOS>ATOM
      1 O           0.9812   -0.0724    0.0012 O.2     1  UNL1       -0.2758
      2 C           2.1926    0.0192    0.0593 C.2     1  UNL1        0.2131
      3 C           2.9393    1.1468    0.7397 C.3     1  UNL1        0.0262
      4 C           1.9771    2.1443    1.3644 C.3     1  UNL1       -0.0187
      5 C           2.7559    3.2896    2.0081 C.3     1  UNL1        0.0700
      6 N           2.4969    3.4511    3.4447 N.3     1  UNL1       -0.2422
      7 N           2.4784    4.8901    3.8319 N.3     1  UNL1       -0.2341
      8 C           2.7492    5.7331    2.6465 C.3     1  UNL1        0.1456
      9 C           2.0282    7.0802    2.5993 C.2     1  UNL1        0.2457
     10 O           2.2348    7.8348    1.6415 O.2     1  UNL1       -0.2728
     11 N           1.2200    7.4223    3.6671 N.am    1  UNL1       -0.2835
     12 C           0.4476    8.6023    3.6696 C.ar    1  UNL1        0.0335
     13 C           0.3005    9.3416    4.8434 C.ar    1  UNL1       -0.0405
     14 C          -0.5069   10.4857    4.8485 C.ar    1  UNL1       -0.0600
     15 C          -1.1449   10.9052    3.6798 C.ar    1  UNL1       -0.0616
     16 C          -1.0016   10.1680    2.5093 C.ar    1  UNL1       -0.0600
     17 C          -0.2070    9.0237    2.5061 C.ar    1  UNL1       -0.0405
     18 S           2.3219    4.8026    1.1817 S.3     1  UNL1       -0.1116
     19 N           2.9723   -0.9454   -0.5158 N.am    1  UNL1       -0.3150
     20 C           4.4133   -0.9524   -0.5308 C.3     1  UNL1        0.0155
     21 C           4.9359   -2.1593   -1.2565 C.3     1  UNL1       -0.0092
     22 C           6.4172   -2.2848   -1.3718 C.2     1  UNL1        0.0092
     23 C           6.9231   -3.3421   -2.0015 C.ar    1  UNL1        0.0523
     24 C           6.2630   -4.4352   -2.6160 C.ar    1  UNL1       -0.0298
     25 C           7.0029   -5.4635   -3.0346 C.ar    1  UNL1        0.0419
     26 CL          6.2125   -6.8961   -3.5571 Cl      1  UNL1       -0.0835
     27 C           8.4578   -5.3990   -2.9967 C.ar    1  UNL1       -0.0372
     28 C           9.1541   -4.3696   -2.4593 C.ar    1  UNL1        0.0112
     29 C           8.3784   -3.2434   -1.8901 C.ar    1  UNL1        0.2086
     30 N           8.7276   -2.1643   -1.2942 N.2     1  UNL1       -0.2369
     31 C           7.5130   -1.3941   -0.8621 C.3     1  UNL1        0.1661
     32 H           3.5637    1.6517   -0.0086 H       1  UNL1        0.0359
     33 H           3.5917    0.7303    1.5153 H       1  UNL1        0.0359
     34 H           1.3419    1.6300    2.0950 H       1  UNL1        0.0293
     35 H           1.2954    2.4928    0.5758 H       1  UNL1        0.0293
     36 H           3.8368    3.1658    1.8670 H       1  UNL1        0.0589
     37 H           3.1607    2.8932    3.9890 H       1  UNL1        0.1418
     38 H           3.1827    5.0956    4.5469 H       1  UNL1        0.1424
     39 H           3.8242    5.9396    2.6107 H       1  UNL1        0.0686
     40 H           1.2220    6.8365    4.4943 H       1  UNL1        0.1549
     41 H           0.8581    9.0865    5.7397 H       1  UNL1        0.0636
     42 H          -0.6395   11.0571    5.7638 H       1  UNL1        0.0618
     43 H          -1.7507   11.8076    3.6778 H       1  UNL1        0.0618
     44 H          -1.5128   10.4692    1.5991 H       1  UNL1        0.0618
     45 H          -0.1314    8.4460    1.5878 H       1  UNL1        0.0636
     46 H           2.4247   -1.6783   -0.9616 H       1  UNL1        0.1487
     47 H           4.7672   -0.9528    0.5044 H       1  UNL1        0.0465
     48 H           4.7577   -0.0405   -1.0265 H       1  UNL1        0.0465
     49 H           4.5140   -2.1651   -2.2719 H       1  UNL1        0.0327
     50 H           4.5460   -3.0610   -0.7592 H       1  UNL1        0.0327
     51 H           5.1800   -4.4401   -2.6751 H       1  UNL1        0.0640
     52 H           8.9711   -6.2366   -3.4651 H       1  UNL1        0.0634
     53 H          10.2378   -4.3797   -2.4549 H       1  UNL1        0.0684
     54 H           9.7034   -1.8976   -1.1599 H       1  UNL1        0.4459
     55 H           7.5192   -0.4143   -1.3485 H       1  UNL1        0.1077
     56 H           7.5254   -1.2944    0.2285 H       1  UNL1        0.1077
@<TRIPOS>UNITY_ATOM_ATTR
30 1
charge 1
@<TRIPOS>BOND
     1     1     2    2
     2     2     3    1
     3     3     4    1
     4     4     5    1
     5     5     6    1
     6     6     7    1
     7     7     8    1
     8     9    10    2
     9     9    11   am
    10    11    12    1
    11    12    13   ar
    12    13    14   ar
    13    14    15   ar
    14    15    16   ar
    15    16    17   ar
    16    12    17   ar
    17     8    18    1
    18     5    18    1
    19     2    19   am
    20    19    20    1
    21    20    21    1
    22    21    22    1
    23    22    23    2
    24    23    24   ar
    25    24    25   ar
    26    25    26    1
    27    25    27   ar
    28    27    28   ar
    29    28    29   ar
    30    23    29   ar
    31    29    30    2
    32    30    31    1
    33    22    31    1
    34     8     9    1
    35     3    32    1
    36     3    33    1
    37     4    34    1
    38     4    35    1
    39     5    36    1
    40     6    37    1
    41     7    38    1
    42     8    39    1
    43    11    40    1
    44    13    41    1
    45    14    42    1
    46    15    43    1
    47    16    44    1
    48    17    45    1
    49    19    46    1
    50    20    47    1
    51    20    48    1
    52    21    49    1
    53    21    50    1
    54    24    51    1
    55    27    52    1
    56    28    53    1
    57    30    54    1
    58    31    55    1
    59    31    56    1
