REMARK  11 active torsions:
REMARK  status: ('A' for Active; 'I' for Inactive)
REMARK    1  A    between atoms: C_7  and  O_8 
REMARK    2  A    between atoms: O_8  and  C_9 
REMARK    3  A    between atoms: C_9  and  C_10 
REMARK    4  A    between atoms: C_10  and  N_11 
REMARK       I    between atoms: N_11  and  C_12 
REMARK       I    between atoms: C_12  and  N_14 
REMARK    5  A    between atoms: N_14  and  C_15 
REMARK    6  A    between atoms: C_16  and  C_15 
REMARK    7  A    between atoms: C_16  and  C_18 
REMARK    8  A    between atoms: C_16  and  O_17 
REMARK    9  A    between atoms: C_18  and  O_19 
REMARK   10  A    between atoms: O_19  and  C_20 
REMARK   11  A    between atoms: C_23  and  N_24 
ROOT
ATOM      1  N   UNL d   1      10.248   6.378  -4.696  0.00  0.00    -0.341 N 
ATOM      2  C   UNL d   1       9.819   5.533  -3.707  0.00  0.00     0.316 C 
ATOM      3  O   UNL d   1       9.701   4.321  -3.873  0.00  0.00    -0.247 OA
ATOM      4  N   UNL d   1       9.498   6.166  -2.534  0.00  0.00    -0.341 N 
ATOM      5  H   UNL d   1      10.361   7.365  -4.508  0.00  0.00     0.164 HD
ATOM      6  H   UNL d   1       9.933   7.066  -2.398  0.00  0.00     0.164 HD
ENDROOT
BRANCH   4   7
ATOM      7  C   UNL d   1       9.185   5.363  -1.343  0.00  0.00     0.158 C 
BRANCH   7   8
ATOM      8  C   UNL d   1       8.827   6.175  -0.078  0.00  0.00     0.160 C 
BRANCH   8   9
ATOM      9  C   UNL d   1       9.604   7.489   0.038  0.00  0.00     0.209 C 
BRANCH   9  10
ATOM     10  O   UNL d   1      10.996   7.212  -0.106  0.00  0.00    -0.349 OA
BRANCH  10  11
ATOM     11  C   UNL d   1      11.840   8.280  -0.016  0.00  0.00     0.069 A 
ATOM     12  C   UNL d   1      13.003   8.204  -0.790  0.00  0.00     0.039 A 
ATOM     13  C   UNL d   1      13.992   9.185  -0.676  0.00  0.00     0.039 A 
ATOM     14  C   UNL d   1      13.776  10.281   0.167  0.00  0.00     0.103 A 
ATOM     15  C   UNL d   1      12.616  10.358   0.948  0.00  0.00     0.039 A 
ATOM     16  C   UNL d   1      11.654   9.350   0.858  0.00  0.00     0.039 A 
BRANCH  14  17
ATOM     17  N   UNL d   1      14.740  11.388   0.191  0.00  0.00    -0.116 N 
ATOM     18  O   UNL d   1      15.739  11.298  -0.537  0.00  0.00    -0.532 OA
ATOM     19  O   UNL d   1      14.481  12.362   0.912  0.00  0.00    -0.532 OA
ENDBRANCH  14  17
ENDBRANCH  10  11
ENDBRANCH   9  10
ENDBRANCH   8   9
BRANCH   8  20
ATOM     20  O   UNL d   1       7.425   6.455  -0.019  0.00  0.00    -0.392 OA
ATOM     21  H   UNL d   1       7.165   6.851  -0.869  0.00  0.00     0.210 HD
ENDBRANCH   8  20
ENDBRANCH   7   8
ENDBRANCH   4   7
BRANCH   1  22
ATOM     22  C   UNL d   1      10.514   5.843  -6.039  0.00  0.00     0.151 C 
BRANCH  22  23
ATOM     23  C   UNL d   1      10.957   6.914  -7.025  0.00  0.00     0.195 C 
BRANCH  23  24
ATOM     24  O   UNL d   1      11.214   6.450  -8.350  0.00  0.00    -0.349 OA
BRANCH  24  25
ATOM     25  C   UNL d   1      11.615   7.384  -9.290  0.00  0.00     0.074 A 
ATOM     26  C   UNL d   1      11.849   6.833 -10.567  0.00  0.00     0.037 A 
ATOM     27  C   UNL d   1      12.256   7.629 -11.648  0.00  0.00     0.003 A 
ATOM     28  C   UNL d   1      12.446   8.992 -11.470  0.00  0.00     0.001 A 
ATOM     29  C   UNL d   1      12.223   9.553 -10.218  0.00  0.00     0.009 A 
ATOM     30  C   UNL d   1      11.805   8.773  -9.119  0.00  0.00    -0.029 A 
ATOM     31  C   UNL d   1      11.585   9.533  -7.843  0.00  0.00     0.051 C 
ENDBRANCH  24  25
ENDBRANCH  23  24
ENDBRANCH  22  23
ENDBRANCH   1  22
TORSDOF 11
