@<TRIPOS>MOLECULE
*****
 47 47 0 0 0
SMALL
GASTEIGER

@<TRIPOS>ATOM
      1 C           0.9513    0.0817   -0.0145 C.3     1  UNL1       -0.0652
      2 C           2.4755    0.1025    0.0043 C.3     1  UNL1       -0.0545
      3 C           3.0173    1.1705    0.9696 C.3     1  UNL1       -0.0376
      4 C           4.5531    1.2029    0.9989 C.3     1  UNL1        0.0131
      5 N           5.1195    2.2072    1.9059 N.am    1  UNL1       -0.2982
      6 C           6.4857    2.3607    2.0442 C.2     1  UNL1        0.3160
      7 O           7.3046    1.6745    1.4259 O.2     1  UNL1       -0.2513
      8 N           6.8821    3.3458    2.9311 N.am    1  UNL1       -0.2182
      9 N           8.2828    3.5805    3.1555 N.am    1  UNL1       -0.2329
     10 C           8.6697    4.5665    4.0559 C.2     1  UNL1        0.2334
     11 O           7.8184    5.2441    4.6373 O.2     1  UNL1       -0.2739
     12 C          10.1985    4.7441    4.2696 C.3     1  UNL1        0.0506
     13 C          10.5206    5.8308    5.2911 C.ar    1  UNL1       -0.0351
     14 C          10.2364    5.6572    6.6469 C.ar    1  UNL1       -0.0579
     15 C          10.1818    6.7640    7.4997 C.ar    1  UNL1       -0.0580
     16 C          10.4745    8.0448    7.0207 C.ar    1  UNL1       -0.0199
     17 C          10.8397    8.2208    5.6864 C.ar    1  UNL1        0.1211
     18 O          10.9886    9.5192    5.2634 O.3     1  UNL1       -0.4894
     19 C          11.2299    9.7386    3.8629 C.3     1  UNL1        0.0946
     20 C          10.0465    9.3324    2.9702 C.3     1  UNL1       -0.0281
     21 C          11.4628   11.2353    3.6485 C.3     1  UNL1       -0.0281
     22 C          10.9328    7.0964    4.8583 C.ar    1  UNL1       -0.0163
     23 H           0.5832   -0.6839   -0.7064 H       1  UNL1        0.0230
     24 H           0.5501    1.0477   -0.3375 H       1  UNL1        0.0230
     25 H           0.5501   -0.1423    0.9791 H       1  UNL1        0.0230
     26 H           2.8390    0.2925   -1.0128 H       1  UNL1        0.0263
     27 H           2.8390   -0.8903    0.2959 H       1  UNL1        0.0263
     28 H           2.6310    0.9715    1.9766 H       1  UNL1        0.0280
     29 H           2.6310    2.1523    0.6701 H       1  UNL1        0.0280
     30 H           4.9370    1.4062   -0.0078 H       1  UNL1        0.0462
     31 H           4.9371    0.2220    1.3029 H       1  UNL1        0.0462
     32 H           4.4918    2.7942    2.4365 H       1  UNL1        0.1503
     33 H           6.2425    3.9314    3.4626 H       1  UNL1        0.1744
     34 H           8.9237    2.9931    2.6255 H       1  UNL1        0.1728
     35 H          10.6562    5.0057    3.3056 H       1  UNL1        0.0407
     36 H          10.6499    3.8026    4.5989 H       1  UNL1        0.0407
     37 H           9.9936    4.6713    7.0325 H       1  UNL1        0.0620
     38 H           9.8433    6.6340    8.5246 H       1  UNL1        0.0619
     39 H          10.3966    8.9002    7.6882 H       1  UNL1        0.0654
     40 H          12.1542    9.2199    3.5782 H       1  UNL1        0.0727
     41 H           9.1445    9.8848    3.2472 H       1  UNL1        0.0265
     42 H           9.7637    8.2814    3.0424 H       1  UNL1        0.0265
     43 H          10.2841    9.5139    1.9181 H       1  UNL1        0.0265
     44 H          10.5701   11.8106    3.9202 H       1  UNL1        0.0265
     45 H          11.6959   11.4411    2.5976 H       1  UNL1        0.0265
     46 H          12.2845   11.6062    4.2677 H       1  UNL1        0.0265
     47 H          11.2504    7.1917    3.8278 H       1  UNL1        0.0657
@<TRIPOS>BOND
     1     1     2    1
     2     2     3    1
     3     3     4    1
     4     4     5    1
     5     5     6   am
     6     6     7    2
     7     6     8   am
     8     8     9    1
     9     9    10   am
    10    10    11    2
    11    10    12    1
    12    12    13    1
    13    13    14   ar
    14    14    15   ar
    15    15    16   ar
    16    16    17   ar
    17    17    18    1
    18    18    19    1
    19    19    20    1
    20    19    21    1
    21    17    22   ar
    22    13    22   ar
    23     1    23    1
    24     1    24    1
    25     1    25    1
    26     2    26    1
    27     2    27    1
    28     3    28    1
    29     3    29    1
    30     4    30    1
    31     4    31    1
    32     5    32    1
    33     8    33    1
    34     9    34    1
    35    12    35    1
    36    12    36    1
    37    14    37    1
    38    15    38    1
    39    16    39    1
    40    19    40    1
    41    20    41    1
    42    20    42    1
    43    20    43    1
    44    21    44    1
    45    21    45    1
    46    21    46    1
    47    22    47    1
