REMARK  3 active torsions:
REMARK  status: ('A' for Active; 'I' for Inactive)
REMARK    1  A    between atoms: C_5  and  C_6 
REMARK       I    between atoms: C_6  and  N_8 
REMARK    2  A    between atoms: N_8  and  C_9 
REMARK    3  A    between atoms: C_12  and  C_13 
REMARK       I    between atoms: C_13  and  N_14 
ROOT
ATOM      1  C   UNL d   1       3.030   2.856  -0.013  0.00  0.00     0.256 C 
ATOM      2  O   UNL d   1       2.282   3.832   0.001  0.00  0.00    -0.267 OA
ATOM      3  N   UNL d   1       4.416   2.950  -0.099  0.00  0.00    -0.323 N 
ATOM      4  H   UNL d   1       4.967   2.133  -0.313  0.00  0.00     0.169 HD
ENDROOT
BRANCH   3   5
ATOM      5  C   UNL d   1       5.114   4.182  -0.073  0.00  0.00     0.035 A 
ATOM      6  C   UNL d   1       6.268   4.339  -0.845  0.00  0.00     0.030 A 
ATOM      7  C   UNL d   1       7.011   5.530  -0.784  0.00  0.00     0.019 A 
ATOM      8  C   UNL d   1       6.585   6.598   0.017  0.00  0.00     0.032 A 
ATOM      9  C   UNL d   1       5.443   6.424   0.810  0.00  0.00     0.019 A 
ATOM     10  C   UNL d   1       4.712   5.229   0.758  0.00  0.00     0.030 A 
BRANCH   8  11
ATOM     11  C   UNL d   1       7.264   7.930   0.019  0.00  0.00     0.249 C 
ATOM     12  N   UNL d   1       8.346   8.117  -0.796  0.00  0.00    -0.366 N 
ATOM     13  H   UNL d   1       8.720   7.434  -1.435  0.00  0.00     0.159 HD
ATOM     14  H   UNL d   1       8.751   9.045  -0.818  0.00  0.00     0.159 HD
ATOM     15  O   UNL d   1       6.854   8.861   0.711  0.00  0.00    -0.268 OA
ENDBRANCH   8  11
ENDBRANCH   3   5
BRANCH   1  16
ATOM     16  C   UNL d   1       2.397   1.493  -0.004  0.00  0.00     0.033 A 
ATOM     17  C   UNL d   1       3.119   0.296   0.000  0.00  0.00     0.017 A 
ATOM     18  C   UNL d   1       2.448  -0.936  -0.001  0.00  0.00     0.009 A 
ATOM     19  C   UNL d   1       1.047  -1.006   0.001  0.00  0.00    -0.045 A 
ATOM     20  C   UNL d   1       0.374  -2.352  -0.007  0.00  0.00     0.049 C 
ATOM     21  C   UNL d   1       0.325   0.194   0.006  0.00  0.00     0.017 A 
ATOM     22  C   UNL d   1       0.992   1.425   0.005  0.00  0.00     0.036 A 
ATOM     23 BR   UNL d   1      -1.577   0.215   0.006  0.00  0.00    -0.051 Br
ENDBRANCH   1  16
TORSDOF 3
