REMARK  6 active torsions:
REMARK  status: ('A' for Active; 'I' for Inactive)
REMARK    1  A    between atoms: O_2  and  C_3 
REMARK    2  A    between atoms: C_3  and  C_5 
REMARK    3  A    between atoms: C_5  and  N_6 
REMARK       I    between atoms: N_6  and  C_7 
REMARK    4  A    between atoms: C_7  and  C_9 
REMARK    5  A    between atoms: C_12  and  N_13 
REMARK       I    between atoms: N_13  and  C_14 
REMARK       I    between atoms: C_14  and  N_16 
REMARK    6  A    between atoms: N_16  and  C_17 
ROOT
ATOM      1  C   UNL d   1       7.082  -3.814   1.794  0.00  0.00     0.032 A 
ATOM      2  C   UNL d   1       8.263  -3.844   2.557  0.00  0.00     0.019 A 
ATOM      3  C   UNL d   1       8.882  -5.072   2.923  0.00  0.00     0.030 A 
ATOM      4  C   UNL d   1       8.291  -6.298   2.587  0.00  0.00     0.036 A 
ATOM      5  C   UNL d   1       7.115  -6.229   1.822  0.00  0.00     0.030 A 
ATOM      6  C   UNL d   1       6.506  -5.024   1.441  0.00  0.00     0.019 A 
ENDROOT
BRANCH   4   7
ATOM      7  N   UNL d   1       8.854  -7.553   3.029  0.00  0.00    -0.309 N 
ATOM      8  C   UNL d   1       8.246  -8.785   2.804  0.00  0.00     0.325 C 
ATOM      9  O   UNL d   1       7.189  -8.918   2.190  0.00  0.00    -0.247 OA
ATOM     10  N   UNL d   1       8.878  -9.908   3.330  0.00  0.00    -0.309 N 
ATOM     11  H   UNL d   1       9.521  -9.813   4.103  0.00  0.00     0.170 HD
ATOM     12  H   UNL d   1       9.695  -7.512   3.589  0.00  0.00     0.170 HD
BRANCH  10  13
ATOM     13  C   UNL d   1       8.340 -11.211   3.054  0.00  0.00     0.038 A 
ATOM     14  C   UNL d   1       8.261 -12.207   4.032  0.00  0.00     0.031 A 
ATOM     15  C   UNL d   1       7.763 -13.486   3.702  0.00  0.00     0.028 A 
ATOM     16  C   UNL d   1       7.309 -13.767   2.408  0.00  0.00     0.055 A 
ATOM     17 CL   UNL d   1       6.637 -15.328   2.092  0.00  0.00    -0.083 Cl
ATOM     18  C   UNL d   1       7.393 -12.782   1.427  0.00  0.00     0.058 A 
ATOM     19 CL   UNL d   1       6.941 -13.061  -0.217  0.00  0.00    -0.082 Cl
ATOM     20  C   UNL d   1       7.900 -11.521   1.756  0.00  0.00     0.055 A 
ENDBRANCH  10  13
ENDBRANCH   4   7
BRANCH   1  21
ATOM     21  C   UNL d   1       6.571  -2.532   1.214  0.00  0.00     0.252 C 
ATOM     22  N   UNL d   1       5.209  -2.371   1.057  0.00  0.00    -0.348 N 
ATOM     23  H   UNL d   1       4.555  -3.062   1.413  0.00  0.00     0.163 HD
ATOM     24  O   UNL d   1       7.383  -1.671   0.866  0.00  0.00    -0.268 OA
BRANCH  22  25
ATOM     25  C   UNL d   1       4.629  -1.156   0.462  0.00  0.00     0.233 C 
BRANCH  25  26
ATOM     26  C   UNL d   1       3.099  -1.197   0.480  0.00  0.00     0.276 C 
ATOM     27  O   UNL d   1       2.450  -2.136   0.942  0.00  0.00    -0.263 OA
BRANCH  26  28
ATOM     28  O   UNL d   1       2.548  -0.077  -0.070  0.00  0.00    -0.325 OA
ATOM     29  C   UNL d   1       1.111  -0.060  -0.078  0.00  0.00     0.213 C 
ENDBRANCH  26  28
ENDBRANCH  25  26
ENDBRANCH  22  25
ENDBRANCH   1  21
TORSDOF 6
