REMARK  9 active torsions:
REMARK  status: ('A' for Active; 'I' for Inactive)
REMARK    1  A    between atoms: C_6  and  N_7 
REMARK    2  A    between atoms: N_7  and  C_8 
REMARK    3  A    between atoms: C_8  and  C_9 
REMARK    4  A    between atoms: C_12  and  S_13 
REMARK    5  A    between atoms: S_13  and  C_14 
REMARK    6  A    between atoms: C_14  and  C_15 
REMARK       I    between atoms: C_15  and  N_17 
REMARK    7  A    between atoms: N_17  and  C_18 
REMARK    8  A    between atoms: C_21  and  O_22 
REMARK    9  A    between atoms: O_22  and  C_23 
ROOT
ATOM      1  C   UNL d   1      -6.642   4.929   0.148  0.00  0.00     0.185 C 
ENDROOT
BRANCH   1   2
ATOM      2  S   UNL d   1      -5.600   6.447   0.116  0.00  0.00    -0.081 SA
BRANCH   2   3
ATOM      3  C   UNL d   1      -3.978   5.904   0.079  0.00  0.00     0.185 A 
ATOM      4  N   UNL d   1      -2.952   6.802   0.055  0.00  0.00    -0.254 N 
ATOM      5  N   UNL d   1      -1.758   6.181   0.033  0.00  0.00    -0.155 NA
ATOM      6  H   UNL d   1      -2.994   7.814   0.054  0.00  0.00     0.191 HD
ATOM      7  C   UNL d   1      -2.138   4.894   0.043  0.00  0.00     0.166 A 
ATOM      8  N   UNL d   1      -3.508   4.685   0.071  0.00  0.00    -0.204 NA
BRANCH   7   9
ATOM      9  C   UNL d   1      -1.167   3.748   0.025  0.00  0.00     0.202 C 
BRANCH   9  10
ATOM     10  N   UNL d   1      -1.790   2.429  -0.011  0.00  0.00    -0.383 N 
ATOM     11  H   UNL d   1      -2.803   2.438   0.024  0.00  0.00     0.160 HD
BRANCH  10  12
ATOM     12  C   UNL d   1      -1.096   1.244   0.005  0.00  0.00     0.028 A 
ATOM     13  C   UNL d   1      -1.794   0.032  -0.005  0.00  0.00     0.029 A 
ATOM     14  C   UNL d   1      -1.118  -1.191  -0.000  0.00  0.00     0.003 A 
ATOM     15  C   UNL d   1       0.275  -1.220   0.004  0.00  0.00     0.007 A 
ATOM     16  C   UNL d   1       0.996  -0.026   0.003  0.00  0.00    -0.060 A 
ATOM     17  C   UNL d   1       2.494  -0.012  -0.013  0.00  0.00     0.048 C 
ATOM     18  C   UNL d   1       0.302   1.191   0.005  0.00  0.00     0.036 A 
ENDBRANCH  10  12
ENDBRANCH   9  10
ENDBRANCH   7   9
ENDBRANCH   2   3
ENDBRANCH   1   2
BRANCH   1  19
ATOM     19  C   UNL d   1      -8.124   5.355   0.193  0.00  0.00     0.231 C 
ATOM     20  O   UNL d   1      -8.450   6.551   0.192  0.00  0.00    -0.272 OA
ATOM     21  N   UNL d   1      -9.074   4.333   0.273  0.00  0.00    -0.327 N 
ATOM     22  H   UNL d   1      -8.788   3.387   0.493  0.00  0.00     0.169 HD
BRANCH  21  23
ATOM     23  C   UNL d   1     -10.472   4.603   0.234  0.00  0.00     0.034 A 
ATOM     24  C   UNL d   1     -11.392   3.869   0.992  0.00  0.00     0.032 A 
ATOM     25  C   UNL d   1     -12.774   4.154   0.905  0.00  0.00     0.039 A 
ATOM     26  C   UNL d   1     -13.241   5.193   0.088  0.00  0.00     0.076 A 
ATOM     27  C   UNL d   1     -12.317   5.902  -0.672  0.00  0.00     0.039 A 
ATOM     28  C   UNL d   1     -10.958   5.605  -0.605  0.00  0.00     0.032 A 
BRANCH  26  29
ATOM     29  O   UNL d   1     -14.597   5.470   0.123  0.00  0.00    -0.311 OA
BRANCH  29  30
ATOM     30  C   UNL d   1     -15.068   6.550  -0.597  0.00  0.00     0.076 A 
ATOM     31  C   UNL d   1     -15.613   7.635   0.093  0.00  0.00     0.037 A 
ATOM     32  C   UNL d   1     -16.147   8.715  -0.618  0.00  0.00     0.003 A 
ATOM     33  C   UNL d   1     -16.076   8.740  -2.012  0.00  0.00     0.000 A 
ATOM     34  C   UNL d   1     -15.534   7.656  -2.700  0.00  0.00     0.003 A 
ATOM     35  C   UNL d   1     -15.068   6.544  -1.996  0.00  0.00     0.037 A 
ENDBRANCH  29  30
ENDBRANCH  26  29
ENDBRANCH  21  23
ENDBRANCH   1  19
TORSDOF 9
