@<TRIPOS>MOLECULE
*****
 57 58 0 0 0
SMALL
GASTEIGER

@<TRIPOS>ATOM
      1 C           1.8790    1.4822   -0.0150 C.3     1  UNL1       -0.0395
      2 C           0.6010    0.6913    0.0017 C.ar    1  UNL1       -0.0474
      3 C          -0.5995    1.3904    0.0244 C.ar    1  UNL1       -0.0568
      4 C          -1.8163    0.7168    0.0220 C.ar    1  UNL1       -0.0402
      5 C          -1.9039   -0.6751   -0.0198 C.ar    1  UNL1        0.0336
      6 N          -3.1739   -1.3449   -0.0652 N.am    1  UNL1       -0.2855
      7 C          -4.4118   -0.6956   -0.0861 C.2     1  UNL1        0.2177
      8 O          -4.5704    0.5288   -0.0588 O.2     1  UNL1       -0.2755
      9 C          -5.6623   -1.5659   -0.1490 C.3     1  UNL1        0.0326
     10 C          -6.9441   -0.6766   -0.1532 C.3     1  UNL1        0.0336
     11 C          -8.2509   -1.4797   -0.2138 C.2     1  UNL1        0.2295
     12 O          -8.2636   -2.7132   -0.2554 O.2     1  UNL1       -0.2743
     13 N          -9.4234   -0.7358   -0.2189 N.am    1  UNL1       -0.2351
     14 N         -10.7461   -1.3742   -0.2740 N.am    1  UNL1       -0.2455
     15 C         -11.9018   -0.5637   -0.2780 C.2     1  UNL1        0.1531
     16 S         -11.7154    1.1145   -0.2162 S.2     1  UNL1       -0.0170
     17 N         -13.1523   -1.2489   -0.3344 N.am    1  UNL1       -0.2639
     18 C         -14.4411   -0.6425   -0.3515 C.2     1  UNL1        0.2561
     19 O         -14.5940    0.5804   -0.3093 O.2     1  UNL1       -0.2717
     20 C         -15.7242   -1.5346   -0.4148 C.3     1  UNL1        0.1655
     21 O         -16.8768   -0.6548   -0.4931 O.3     1  UNL1       -0.4828
     22 C         -18.1401   -1.1797   -0.4863 C.ar    1  UNL1        0.1215
     23 C         -19.0912   -0.5485   -1.2973 C.ar    1  UNL1       -0.0189
     24 C         -20.4183   -0.9980   -1.3329 C.ar    1  UNL1       -0.0441
     25 C         -20.8184   -2.0706   -0.5341 C.ar    1  UNL1        0.0210
     26 BR        -22.6327   -2.6236   -0.6742 Br      1  UNL1       -0.0500
     27 C         -19.8942   -2.6893    0.3214 C.ar    1  UNL1       -0.0330
     28 C         -20.2422   -3.8375    1.2281 C.3     1  UNL1       -0.0385
     29 C         -18.5562   -2.2217    0.3399 C.ar    1  UNL1       -0.0160
     30 C          -0.6917   -1.3916   -0.0200 C.ar    1  UNL1       -0.0373
     31 C           0.5634   -0.7176   -0.0022 C.ar    1  UNL1       -0.0458
     32 C           1.8562   -1.4929    0.0198 C.3     1  UNL1       -0.0394
     33 H           1.6778    2.5605   -0.0264 H       1  UNL1        0.0278
     34 H           2.4576    1.2535   -0.9147 H       1  UNL1        0.0278
     35 H           2.4727    1.2708    0.8783 H       1  UNL1        0.0278
     36 H          -0.6192    2.4774    0.0427 H       1  UNL1        0.0621
     37 H          -2.6863    1.3561    0.0511 H       1  UNL1        0.0636
     38 H          -3.1498   -2.3582   -0.1049 H       1  UNL1        0.1548
     39 H          -5.6746   -2.2320    0.7198 H       1  UNL1        0.0363
     40 H          -5.6271   -2.1710   -1.0609 H       1  UNL1        0.0363
     41 H          -6.9068    0.0088   -1.0123 H       1  UNL1        0.0363
     42 H          -6.9524   -0.0497    0.7501 H       1  UNL1        0.0363
     43 H          -9.4332    0.2867   -0.1854 H       1  UNL1        0.1728
     44 H         -10.7124   -2.3915   -0.3090 H       1  UNL1        0.1718
     45 H         -13.1215   -2.2587   -0.3692 H       1  UNL1        0.1566
     46 H         -15.7706   -2.1523    0.4855 H       1  UNL1        0.0795
     47 H         -15.7049   -2.1464   -1.3213 H       1  UNL1        0.0795
     48 H         -18.8087    0.3002   -1.9170 H       1  UNL1        0.0654
     49 H         -21.1357   -0.5068   -1.9883 H       1  UNL1        0.0630
     50 H         -21.2854   -4.1517    1.1598 H       1  UNL1        0.0278
     51 H         -20.0565   -3.5625    2.2712 H       1  UNL1        0.0278
     52 H         -19.6283   -4.7055    0.9673 H       1  UNL1        0.0278
     53 H         -17.8595   -2.6680    1.0416 H       1  UNL1        0.0657
     54 H          -0.6922   -2.4798   -0.0322 H       1  UNL1        0.0639
     55 H           1.6849   -2.5727    0.0262 H       1  UNL1        0.0278
     56 H           2.4309   -1.2429    0.9195 H       1  UNL1        0.0278
     57 H           2.4607   -1.2540   -0.8624 H       1  UNL1        0.0278
@<TRIPOS>BOND
     1     1     2    1
     2     2     3   ar
     3     3     4   ar
     4     4     5   ar
     5     5     6    1
     6     6     7   am
     7     7     8    2
     8     7     9    1
     9     9    10    1
    10    10    11    1
    11    11    12    2
    12    11    13   am
    13    13    14    1
    14    14    15    1
    15    15    16    2
    16    15    17    1
    17    17    18   am
    18    18    19    2
    19    18    20    1
    20    20    21    1
    21    21    22    1
    22    22    23   ar
    23    23    24   ar
    24    24    25   ar
    25    25    26    1
    26    25    27   ar
    27    27    28    1
    28    27    29   ar
    29    22    29   ar
    30     5    30   ar
    31    30    31   ar
    32     2    31   ar
    33    31    32    1
    34     1    33    1
    35     1    34    1
    36     1    35    1
    37     3    36    1
    38     4    37    1
    39     6    38    1
    40     9    39    1
    41     9    40    1
    42    10    41    1
    43    10    42    1
    44    13    43    1
    45    14    44    1
    46    17    45    1
    47    20    46    1
    48    20    47    1
    49    23    48    1
    50    24    49    1
    51    28    50    1
    52    28    51    1
    53    28    52    1
    54    29    53    1
    55    30    54    1
    56    32    55    1
    57    32    56    1
    58    32    57    1
