REMARK  12 active torsions:
REMARK  status: ('A' for Active; 'I' for Inactive)
REMARK    1  A    between atoms: C_2  and  N_3 
REMARK    2  A    between atoms: C_5  and  C_6 
REMARK    3  A    between atoms: C_7  and  N_8 
REMARK    4  A    between atoms: C_7  and  C_23 
REMARK       I    between atoms: N_8  and  C_9 
REMARK    5  A    between atoms: C_9  and  C_11 
REMARK    6  A    between atoms: C_13  and  O_14 
REMARK    7  A    between atoms: C_16  and  O_17 
REMARK    8  A    between atoms: C_19  and  O_20 
REMARK       I    between atoms: C_23  and  N_25 
REMARK    9  A    between atoms: N_25  and  C_26 
REMARK   10  A    between atoms: C_26  and  C_27 
REMARK   11  A    between atoms: C_27  and  C_28 
REMARK   12  A    between atoms: C_28  and  O_29 
ROOT
ATOM      1  C   UNL d   1       4.310  -0.307  -4.564  0.00  0.00     0.043 C 
ATOM      2  C   UNL d   1       4.732   0.958  -4.924  0.00  0.00     0.084 C 
ENDROOT
BRANCH   2   3
ATOM      3  N   UNL d   1       4.821   2.063  -4.052  0.00  0.00    -0.220 NA
ATOM      4  C   UNL d   1       3.856   2.196  -3.082  0.00  0.00     0.235 C 
ATOM      5  O   UNL d   1       2.710   1.847  -3.288  0.00  0.00    -0.274 OA
ATOM      6  H   UNL d   1       4.977   2.960  -4.483  0.00  0.00     0.137 HD
BRANCH   4   7
ATOM      7  C   UNL d   1       4.063   3.033  -1.877  0.00  0.00     0.032 C 
ATOM      8  C   UNL d   1       4.493   2.708  -0.569  0.00  0.00     0.056 C 
ATOM      9  C   UNL d   1       4.231   3.597   0.499  0.00  0.00     0.105 C 
ATOM     10  C   UNL d   1       3.549   4.804   0.223  0.00  0.00     0.135 C 
ATOM     11  C   UNL d   1       3.024   5.032  -1.060  0.00  0.00     0.105 C 
ATOM     12  C   UNL d   1       3.248   4.120  -2.058  0.00  0.00     0.056 C 
BRANCH   9  13
ATOM     13  O   UNL d   1       4.668   3.171   1.741  0.00  0.00    -0.353 OA
ATOM     14  C   UNL d   1       4.670   4.131   2.807  0.00  0.00     0.210 C 
ENDBRANCH   9  13
BRANCH  10  15
ATOM     15  O   UNL d   1       3.442   5.699   1.249  0.00  0.00    -0.351 OA
ATOM     16  C   UNL d   1       2.936   6.990   0.980  0.00  0.00     0.210 C 
ENDBRANCH  10  15
BRANCH  11  17
ATOM     17  O   UNL d   1       2.296   6.151  -1.329  0.00  0.00    -0.353 OA
ATOM     18  C   UNL d   1       1.847   6.350  -2.662  0.00  0.00     0.210 C 
ENDBRANCH  11  17
ENDBRANCH   4   7
ENDBRANCH   2   3
BRANCH   2  19
ATOM     19  C   UNL d   1       5.136   1.222  -6.415  0.00  0.00     0.263 C 
ATOM     20  O   UNL d   1       5.201   0.323  -7.250  0.00  0.00    -0.267 OA
ATOM     21  N   UNL d   1       5.429   2.542  -6.750  0.00  0.00    -0.356 N 
ATOM     22  H   UNL d   1       5.381   3.282  -6.082  0.00  0.00     0.162 HD
BRANCH  21  23
ATOM     23  C   UNL d   1       5.948   2.949  -8.052  0.00  0.00     0.125 C 
BRANCH  23  24
ATOM     24  C   UNL d   1       6.229   4.454  -8.094  0.00  0.00     0.046 C 
BRANCH  24  25
ATOM     25  C   UNL d   1       6.772   4.872  -9.452  0.00  0.00     0.165 C 
BRANCH  25  26
ATOM     26  O   UNL d   1       7.044   6.267  -9.460  0.00  0.00    -0.401 OA
ATOM     27  H   UNL d   1       6.202   6.739  -9.339  0.00  0.00     0.209 HD
ENDBRANCH  25  26
ENDBRANCH  24  25
ENDBRANCH  23  24
ENDBRANCH  21  23
ENDBRANCH   2  19
BRANCH   1  28
ATOM     28  C   UNL d   1       3.800  -0.907  -3.293  0.00  0.00    -0.006 C 
ATOM     29  C   UNL d   1       3.661  -0.292  -2.079  0.00  0.00     0.103 C 
ATOM     30  N   UNL d   1       2.921  -0.979  -1.175  0.00  0.00    -0.356 N 
ATOM     31  C   UNL d   1       2.843  -2.255  -1.623  0.00  0.00     0.045 A 
ATOM     32  C   UNL d   1       2.375  -3.382  -0.949  0.00  0.00     0.030 A 
ATOM     33  C   UNL d   1       3.336  -2.249  -2.959  0.00  0.00     0.002 A 
ATOM     34  C   UNL d   1       2.403  -4.581  -1.641  0.00  0.00     0.002 A 
ATOM     35  C   UNL d   1       2.850  -4.629  -2.963  0.00  0.00     0.001 A 
ATOM     36  C   UNL d   1       3.298  -3.480  -3.641  0.00  0.00     0.014 A 
BRANCH  30  37
ATOM     37  C   UNL d   1       2.397  -0.345   0.028  0.00  0.00     0.124 C 
ATOM     38  C   UNL d   1       0.897  -0.137  -0.021  0.00  0.00     0.027 C 
ENDBRANCH  30  37
ENDBRANCH   1  28
TORSDOF 12
