@<TRIPOS>MOLECULE
*****
 56 58 0 0 0
SMALL
GASTEIGER

@<TRIPOS>ATOM
      1 C          12.3395   -5.6330    4.2467 C.3     1  UNL1       -0.0307
      2 C          12.0933   -4.1983    3.8228 C.3     1  UNL1        0.0868
      3 O          10.7077   -3.9168    4.0234 O.3     1  UNL1       -0.4922
      4 C          10.2713   -2.7194    3.5336 C.ar    1  UNL1        0.1205
      5 C           9.2493   -2.0848    4.2440 C.ar    1  UNL1       -0.0196
      6 C           8.6712   -0.9039    3.7641 C.ar    1  UNL1       -0.0527
      7 C           9.1326   -0.3261    2.5769 C.ar    1  UNL1       -0.0189
      8 C           8.6526    1.0542    2.1718 C.3     1  UNL1        0.0806
      9 O           7.2450    1.0172    1.9410 O.3     1  UNL1       -0.3872
     10 C           9.3429    1.6339    0.9308 C.3     1  UNL1       -0.0144
     11 C          10.8566    1.8780    1.0955 C.3     1  UNL1        0.0282
     12 C          11.4767    2.2784   -0.2316 C.2     1  UNL1        0.2323
     13 O          10.8016    2.4367   -1.2532 O.2     1  UNL1       -0.2741
     14 N          12.8510    2.4078   -0.1729 N.am    1  UNL1       -0.2069
     15 N          13.5580    2.8328   -1.2769 N.2     1  UNL1       -0.1846
     16 C          14.8501    2.9916   -1.1839 C.2     1  UNL1        0.0878
     17 C          15.6357    2.6269   -0.0343 C.ar    1  UNL1        0.1480
     18 C          15.5642    1.4678    0.7107 C.ar    1  UNL1       -0.0143
     19 C          16.3748    1.6584    1.8332 C.ar    1  UNL1       -0.0151
     20 C          16.9856    2.8839    1.6814 C.ar    1  UNL1        0.1394
     21 C          18.0141    3.5244    2.4917 C.ar    1  UNL1        0.0650
     22 C          17.8335    4.7958    3.0510 C.ar    1  UNL1        0.0297
     23 C          18.8659    5.3637    3.8199 C.ar    1  UNL1        0.2741
     24 N          18.7942    6.7796    4.2071 N.pl3   1  UNL1        0.0796
     25 O          17.7812    7.4142    3.8912 O.2     1  UNL1        0.0414
     26 O          19.7755    7.2639    4.7935 O.co2   1  UNL1       -0.5760
     27 C          20.0187    4.6307    4.1394 C.ar    1  UNL1        0.0191
     28 C          20.1824    3.3488    3.6209 C.ar    1  UNL1       -0.0131
     29 C          19.1911    2.8103    2.8007 C.ar    1  UNL1        0.1279
     30 O          19.3539    1.5460    2.2954 O.3     1  UNL1       -0.5061
     31 O          16.5477    3.4912    0.5282 O.2     1  UNL1       -0.4537
     32 C          10.0906   -1.0346    1.8372 C.ar    1  UNL1       -0.0527
     33 C          10.6948   -2.1843    2.3280 C.ar    1  UNL1       -0.0196
     34 H          13.4045   -5.8740    4.1944 H       1  UNL1        0.0262
     35 H          11.7925   -6.3228    3.5941 H       1  UNL1        0.0262
     36 H          11.9799   -5.8015    5.2659 H       1  UNL1        0.0262
     37 H          12.4077   -4.1037    2.7786 H       1  UNL1        0.0694
     38 H          12.6832   -3.5161    4.4439 H       1  UNL1        0.0694
     39 H           8.9071   -2.5041    5.1861 H       1  UNL1        0.0654
     40 H           7.8540   -0.4394    4.3145 H       1  UNL1        0.0622
     41 H           8.8167    1.7446    3.0092 H       1  UNL1        0.0643
     42 H           7.0772    0.3267    1.2773 H       1  UNL1        0.2102
     43 H           8.8596    2.5813    0.6600 H       1  UNL1        0.0298
     44 H           9.1442    0.9725    0.0749 H       1  UNL1        0.0298
     45 H          11.4024    0.9936    1.4374 H       1  UNL1        0.0360
     46 H          11.0351    2.6434    1.8572 H       1  UNL1        0.0360
     47 H          13.3231    2.3064    0.7193 H       1  UNL1        0.1772
     48 H          15.3744    3.4031   -2.0644 H       1  UNL1        0.0883
     49 H          14.9410    0.6170    0.4764 H       1  UNL1        0.0656
     50 H          16.5410    0.9792    2.6546 H       1  UNL1        0.0656
     51 H          16.8967    5.3288    2.8981 H       1  UNL1        0.0693
     52 H          20.7998    5.0504    4.7719 H       1  UNL1        0.0686
     53 H          21.0909    2.7966    3.8437 H       1  UNL1        0.0656
     54 H          20.1923    1.1669    2.6034 H       1  UNL1        0.2922
     55 H          10.4168   -0.7053    0.8552 H       1  UNL1        0.0622
     56 H          11.4651   -2.6414    1.7192 H       1  UNL1        0.0654
@<TRIPOS>UNITY_ATOM_ATTR
24 1
charge 1
26 1
charge -1
@<TRIPOS>BOND
     1     1     2    1
     2     2     3    1
     3     3     4    1
     4     4     5   ar
     5     5     6   ar
     6     6     7   ar
     7     8    10    1
     8    10    11    1
     9    11    12    1
    10    12    13    2
    11    12    14   am
    12    14    15    1
    13    15    16    2
    14    16    17    1
    15    17    18   ar
    16    18    19   ar
    17    19    20   ar
    18    20    21    1
    19    21    22   ar
    20    22    23   ar
    21    23    24    1
    22    24    25    2
    23    24    26    1
    24    23    27   ar
    25    27    28   ar
    26    28    29   ar
    27    21    29   ar
    28    29    30    1
    29    20    31   ar
    30    17    31   ar
    31     7    32   ar
    32    32    33   ar
    33     4    33   ar
    34     8     9    1
    35     8     7    1
    36     1    34    1
    37     1    35    1
    38     1    36    1
    39     2    37    1
    40     2    38    1
    41     5    39    1
    42     6    40    1
    43     8    41    1
    44     9    42    1
    45    10    43    1
    46    10    44    1
    47    11    45    1
    48    11    46    1
    49    14    47    1
    50    16    48    1
    51    18    49    1
    52    19    50    1
    53    22    51    1
    54    27    52    1
    55    28    53    1
    56    30    54    1
    57    32    55    1
    58    33    56    1
