@<TRIPOS>MOLECULE
*****
 33 35 0 0 0
SMALL
GASTEIGER

@<TRIPOS>ATOM
      1 C           1.0323   -0.1105   -0.0485 C.3     1  UNL1        0.0388
      2 C           2.5219   -0.1035   -0.0463 C.ar    1  UNL1        0.2563
      3 N           3.2672    1.0145   -0.0479 N.ar    1  UNL1       -0.1987
      4 C           4.6003    0.7298   -0.0422 C.ar    1  UNL1        0.1873
      5 C           4.6889   -0.6235   -0.0360 C.ar    1  UNL1        0.0740
      6 N           3.3871   -1.1490   -0.0404 N.ar    1  UNL1       -0.2846
      7 C           3.0064   -2.6222   -0.0411 C.3     1  UNL1        0.1049
      8 C           4.2192   -3.6065   -0.0161 C.2     1  UNL1        0.2372
      9 O           5.3816   -3.1882   -0.0564 O.2     1  UNL1       -0.2735
     10 N           3.9907   -4.9745   -0.0019 N.am    1  UNL1       -0.2839
     11 C           5.1017   -5.8801   -0.0358 C.ar    1  UNL1        0.0371
     12 C           6.2465   -5.6804    0.7738 C.ar    1  UNL1       -0.0368
     13 C           7.3465   -6.5555    0.7287 C.ar    1  UNL1       -0.0142
     14 C           7.2891   -7.6147   -0.1519 C.ar    1  UNL1        0.1728
     15 C           6.1842   -7.8063   -0.9499 C.ar    1  UNL1        0.1744
     16 C           5.0742   -6.9744   -0.9034 C.ar    1  UNL1        0.0053
     17 O           6.3171   -8.8812   -1.7754 O.3     1  UNL1       -0.3954
     18 C           7.6201   -9.3449   -1.3895 C.3     1  UNL1        0.5891
     19 F           7.5080  -10.6292   -0.9698 F       1  UNL1       -0.1252
     20 F           8.4188   -9.3421   -2.4855 F       1  UNL1       -0.1252
     21 O           8.2450   -8.5632   -0.3549 O.3     1  UNL1       -0.3955
     22 H           0.6972    0.9307   -0.0482 H       1  UNL1        0.0353
     23 H           0.7025   -0.6201    0.8562 H       1  UNL1        0.0353
     24 H           0.7040   -0.6195   -0.9540 H       1  UNL1        0.0353
     25 H           2.8884    1.9581   -0.0518 H       1  UNL1        0.4541
     26 H           5.3421    1.5093   -0.0415 H       1  UNL1        0.1392
     27 H           5.5816   -1.2183   -0.0284 H       1  UNL1        0.0871
     28 H           2.4100   -2.7994   -0.9447 H       1  UNL1        0.0589
     29 H           2.3773   -2.7952    0.8399 H       1  UNL1        0.0589
     30 H           3.0956   -5.3415   -0.3071 H       1  UNL1        0.1549
     31 H           6.2906   -4.8402    1.4655 H       1  UNL1        0.0637
     32 H           8.2064   -6.3878    1.3714 H       1  UNL1        0.0656
     33 H           4.2511   -7.1536   -1.5830 H       1  UNL1        0.0674
@<TRIPOS>UNITY_ATOM_ATTR
3 1
charge 1
@<TRIPOS>BOND
     1     1     2    1
     2     2     3   ar
     3     3     4   ar
     4     4     5   ar
     5     5     6   ar
     6     2     6   ar
     7     6     7    1
     8     7     8    1
     9     8     9    2
    10     8    10   am
    11    10    11    1
    12    11    12   ar
    13    12    13   ar
    14    13    14   ar
    15    14    15   ar
    16    15    16   ar
    17    11    16   ar
    18    15    17    1
    19    17    18    1
    20    18    19    1
    21    18    20    1
    22    18    21    1
    23    14    21    1
    24     1    22    1
    25     1    23    1
    26     1    24    1
    27     3    25    1
    28     4    26    1
    29     5    27    1
    30     7    28    1
    31     7    29    1
    32    10    30    1
    33    12    31    1
    34    13    32    1
    35    16    33    1
