REMARK  7 active torsions:
REMARK  status: ('A' for Active; 'I' for Inactive)
REMARK    1  A    between atoms: C_2  and  C_3 
REMARK    2  A    between atoms: C_3  and  N_6 
REMARK    3  A    between atoms: C_10  and  C_11 
REMARK    4  A    between atoms: C_11  and  C_12 
REMARK    5  A    between atoms: C_11  and  N_26 
REMARK    6  A    between atoms: N_29  and  C_30 
REMARK    7  A    between atoms: C_33  and  O_34 
ROOT
ATOM      1  C   UNL d   1       5.027   0.438   1.243  0.00  0.00     0.298 C 
ENDROOT
BRANCH   1   2
ATOM      2  C   UNL d   1       5.436   0.386  -0.218  0.00  0.00     0.173 A 
ATOM      3  N   UNL d   1       6.704   0.344  -0.593  0.00  0.00    -0.145 NA
ATOM      4  N   UNL d   1       6.720   0.401  -1.956  0.00  0.00     0.018 NA
ATOM      5  N   UNL d   1       5.490   0.469  -2.442  0.00  0.00    -0.002 NA
ATOM      6  N   UNL d   1       4.662   0.518  -1.373  0.00  0.00    -0.252 N 
BRANCH   6   7
ATOM      7  C   UNL d   1       3.109   0.617  -1.603  0.00  0.00     0.046 C 
ATOM      8  C   UNL d   1       2.888  -0.697  -2.550  0.00  0.00     0.039 C 
ATOM      9  C   UNL d   1       2.892   2.102  -2.130  0.00  0.00     0.039 C 
BRANCH   7  10
ATOM     10  C   UNL d   1       2.209   0.249  -0.168  0.00  0.00     0.027 C 
ATOM     11  C   UNL d   1       0.431   0.173   0.836  0.00  0.00     0.007 C 
ENDBRANCH   7  10
ENDBRANCH   6   7
ENDBRANCH   1   2
BRANCH   1  12
ATOM     12  C   UNL d   1       5.539   1.679   1.959  0.00  0.00     0.049 C 
ATOM     13  C   UNL d   1       6.069   1.655   3.204  0.00  0.00     0.028 C 
ATOM     14  C   UNL d   1       6.266   2.915   3.949  0.00  0.00    -0.009 C 
ATOM     15  C   UNL d   1       6.753   3.087   5.272  0.00  0.00     0.035 C 
ATOM     16  C   UNL d   1       5.955   4.078   3.262  0.00  0.00     0.047 C 
ATOM     17  C   UNL d   1       7.091   4.406   5.710  0.00  0.00     0.171 C 
ATOM     18  C   UNL d   1       7.320   5.305   4.713  0.00  0.00     0.093 C 
ATOM     19  O   UNL d   1       6.363   5.296   6.647  0.00  0.00    -0.341 OA
ATOM     20  C   UNL d   1       6.476   5.272   3.640  0.00  0.00     0.066 C 
ATOM     21  O   UNL d   1       7.642   6.553   5.137  0.00  0.00    -0.327 OA
ATOM     22  C   UNL d   1       6.525   6.645   6.003  0.00  0.00     0.346 C 
ATOM     23  N   UNL d   1       5.298   4.094   2.060  0.00  0.00    -0.322 N 
ATOM     24  C   UNL d   1       5.358   3.013   1.270  0.00  0.00     0.254 C 
ATOM     25  H   UNL d   1       5.135   4.977   1.585  0.00  0.00     0.169 HD
ATOM     26  O   UNL d   1       5.110   3.190   0.085  0.00  0.00    -0.268 OA
ENDBRANCH   1  12
BRANCH   1  27
ATOM     27  N   UNL d   1       3.519   0.279   1.572  0.00  0.00    -0.052 N 
ATOM     28  C   UNL d   1       2.825   1.993   0.812  0.00  0.00     0.256 C 
ATOM     29  C   UNL d   1       1.165   1.941  -0.193  0.00  0.00     0.150 C 
ATOM     30  N   UNL d   1       0.672   0.276  -1.085  0.00  0.00    -0.378 N 
ATOM     31  C   UNL d   1       1.229  -1.429  -0.272  0.00  0.00     0.150 C 
ATOM     32  C   UNL d   1       2.816  -1.487   0.914  0.00  0.00     0.256 C 
ATOM     33  H   UNL d   1       3.235   0.352   2.559  0.00  0.00     0.281 HD
BRANCH  30  34
ATOM     34  C   UNL d   1       0.091   0.353  -2.348  0.00  0.00     0.030 C 
ATOM     35  C   UNL d   1       0.731   0.921  -3.459  0.00  0.00     0.032 C 
ATOM     36  C   UNL d   1       0.208   1.073  -4.694  0.00  0.00     0.039 C 
ATOM     37  C   UNL d   1      -0.965   0.413  -4.868  0.00  0.00     0.065 C 
ATOM     38  C   UNL d   1      -1.560  -0.342  -3.845  0.00  0.00     0.039 C 
ATOM     39  C   UNL d   1      -1.070  -0.311  -2.552  0.00  0.00     0.032 C 
BRANCH  37  40
ATOM     40  O   UNL d   1      -1.529   0.483  -6.094  0.00  0.00    -0.361 OA
ATOM     41  H   UNL d   1      -0.999   1.138  -6.584  0.00  0.00     0.217 HD
ENDBRANCH  37  40
ENDBRANCH  30  34
ENDBRANCH   1  27
TORSDOF 7
