REMARK  5 active torsions:
REMARK  status: ('A' for Active; 'I' for Inactive)
REMARK       I    between atoms: C_2  and  N_3 
REMARK    1  A    between atoms: C_2  and  C_15 
REMARK    2  A    between atoms: N_3  and  C_4 
REMARK    3  A    between atoms: C_4  and  C_5 
REMARK    4  A    between atoms: C_5  and  C_6 
REMARK    5  A    between atoms: C_20  and  N_19 
ROOT
ATOM      1  C   UNL d   1       3.272   2.639  -4.141  0.00  0.00     0.106 C 
ATOM      2  C   UNL d   1       4.164   3.409  -5.117  0.00  0.00     0.017 C 
ATOM      3  C   UNL d   1       5.627   3.353  -4.706  0.00  0.00     0.031 C 
ATOM      4  C   UNL d   1       5.831   3.711  -3.216  0.00  0.00     0.275 C 
ATOM      5  N   UNL d   1       4.903   3.128  -2.225  0.00  0.00     0.117 N 
ATOM      6  C   UNL d   1       3.509   3.117  -2.694  0.00  0.00     0.289 C 
ENDROOT
BRANCH   1   7
ATOM      7  C   UNL d   1       3.319   1.114  -4.347  0.00  0.00     0.223 C 
ATOM      8  O   UNL d   1       2.299   0.442  -4.477  0.00  0.00    -0.273 OA
ATOM      9  N   UNL d   1       4.568   0.543  -4.393  0.00  0.00    -0.360 N 
ATOM     10  H   UNL d   1       5.311   1.050  -3.936  0.00  0.00     0.162 HD
BRANCH   9  11
ATOM     11  C   UNL d   1       4.775  -0.864  -4.623  0.00  0.00     0.127 C 
BRANCH  11  12
ATOM     12  C   UNL d   1       6.268  -1.192  -4.706  0.00  0.00     0.056 C 
BRANCH  12  13
ATOM     13  C   UNL d   1       6.471  -2.644  -4.959  0.00  0.00    -0.048 A 
ATOM     14  C   UNL d   1       6.436  -3.247  -6.150  0.00  0.00    -0.006 A 
ATOM     15  C   UNL d   1       6.221  -2.780  -7.475  0.00  0.00     0.014 A 
ATOM     16  C   UNL d   1       6.633  -4.678  -5.848  0.00  0.00     0.038 A 
ATOM     17  C   UNL d   1       6.221  -3.677  -8.473  0.00  0.00     0.001 A 
ATOM     18  C   UNL d   1       6.426  -5.096  -8.219  0.00  0.00     0.002 A 
ATOM     19  C   UNL d   1       6.623  -5.616  -6.992  0.00  0.00     0.030 A 
ATOM     20  N   UNL d   1       6.782  -4.891  -4.608  0.00  0.00    -0.385 N 
ATOM     21  C   UNL d   1       6.704  -3.623  -3.849  0.00  0.00     0.155 A 
ATOM     22  H   UNL d   1       6.931  -5.820  -4.202  0.00  0.00     0.160 HD
ENDBRANCH  12  13
ENDBRANCH  11  12
ENDBRANCH   9  11
ENDBRANCH   1   7
BRANCH   5  23
ATOM     23  C   UNL d   1       4.994   3.797  -0.858  0.00  0.00     0.370 C 
ATOM     24  N   UNL d   1       4.761   5.280  -0.612  0.00  0.00    -0.252 NA
ATOM     25  C   UNL d   1       6.049   5.900  -0.490  0.00  0.00     0.046 C 
ATOM     26  H   UNL d   1       4.256   5.439   0.265  0.00  0.00     0.130 HD
ATOM     27  C   UNL d   1       6.347   7.264  -0.483  0.00  0.00     0.028 C 
ATOM     28  C   UNL d   1       7.129   5.028  -0.388  0.00  0.00     0.117 C 
ATOM     29  C   UNL d   1       7.700   7.647  -0.558  0.00  0.00     0.021 C 
ATOM     30  C   UNL d   1       8.664   6.657  -0.717  0.00  0.00     0.118 C 
ATOM     31  N   UNL d   1       8.417   5.343  -0.576  0.00  0.00    -0.252 NA
ATOM     32  S   UNL d   1       6.604   3.374  -0.101  0.00  0.00    -0.057 SA
ENDBRANCH   5  23
TORSDOF 5
