REMARK  7 active torsions:
REMARK  status: ('A' for Active; 'I' for Inactive)
REMARK    1  A    between atoms: O_2  and  C_3 
REMARK    2  A    between atoms: C_6  and  N_7 
REMARK       I    between atoms: N_7  and  C_8 
REMARK       I    between atoms: C_8  and  N_19 
REMARK       I    between atoms: N_9  and  C_10 
REMARK    3  A    between atoms: C_10  and  C_12 
REMARK    4  A    between atoms: N_19  and  C_20 
REMARK    5  A    between atoms: C_20  and  C_21 
REMARK    6  A    between atoms: C_21  and  C_22 
REMARK    7  A    between atoms: C_32  and  O_33 
ROOT
ATOM      1  N   UNL d   1       5.147   4.461  -1.855  0.00  0.00    -0.190 N 
ATOM      2  C   UNL d   1       4.599   5.746  -1.618  0.00  0.00     0.704 C 
ATOM      3  N   UNL d   1       3.560   6.120  -0.921  0.00  0.00    -0.023 NA
ATOM      4  C   UNL d   1       2.507   5.244  -0.815  0.00  0.00     0.297 C 
ATOM      5  O   UNL d   1       2.106   4.585  -1.748  0.00  0.00    -0.265 OA
ATOM      6  N   UNL d   1       5.275   6.833  -2.209  0.00  0.00    -0.224 N 
ATOM      7  H   UNL d   1       5.782   4.379  -2.636  0.00  0.00     0.184 HD
ATOM      8  H   UNL d   1       5.894   6.678  -2.997  0.00  0.00     0.177 HD
ENDROOT
BRANCH   1   9
ATOM      9  C   UNL d   1       4.701   3.179  -1.366  0.00  0.00     0.052 C 
ATOM     10  C   UNL d   1       5.017   1.945  -1.916  0.00  0.00     0.033 C 
ATOM     11  C   UNL d   1       4.277   0.759  -1.554  0.00  0.00     0.042 C 
ATOM     12  C   UNL d   1       3.139   0.777  -0.717  0.00  0.00     0.101 C 
ATOM     13  C   UNL d   1       2.871   1.997  -0.154  0.00  0.00     0.103 C 
ATOM     14  C   UNL d   1       3.832   3.042  -0.299  0.00  0.00     0.069 C 
BRANCH  12  15
ATOM     15  O   UNL d   1       2.631  -0.433  -0.313  0.00  0.00    -0.353 OA
ATOM     16  C   UNL d   1       1.236  -0.724  -0.379  0.00  0.00     0.210 C 
ENDBRANCH  12  15
BRANCH  13  17
ATOM     17  O   UNL d   1       1.759   2.450   0.475  0.00  0.00    -0.353 OA
ATOM     18  C   UNL d   1       0.754   1.629   0.982  0.00  0.00     0.210 C 
ENDBRANCH  13  17
ENDBRANCH   1   9
BRANCH   6  19
ATOM     19  C   UNL d   1       4.671   8.190  -2.104  0.00  0.00     0.142 C 
BRANCH  19  20
ATOM     20  C   UNL d   1       5.424   9.295  -2.843  0.00  0.00     0.057 C 
BRANCH  20  21
ATOM     21  C   UNL d   1       4.929  10.710  -2.637  0.00  0.00    -0.048 A 
ATOM     22  C   UNL d   1       5.543  11.753  -3.203  0.00  0.00    -0.006 A 
ATOM     23  C   UNL d   1       6.673  11.827  -4.061  0.00  0.00     0.014 A 
ATOM     24  C   UNL d   1       4.847  12.959  -2.734  0.00  0.00     0.038 A 
ATOM     25  C   UNL d   1       7.158  13.034  -4.373  0.00  0.00     0.001 A 
ATOM     26  C   UNL d   1       6.482  14.252  -3.954  0.00  0.00     0.002 A 
ATOM     27  C   UNL d   1       5.385  14.267  -3.169  0.00  0.00     0.030 A 
ATOM     28  N   UNL d   1       3.849  12.668  -1.991  0.00  0.00    -0.385 N 
ATOM     29  C   UNL d   1       3.763  11.185  -1.803  0.00  0.00     0.155 A 
ATOM     30  H   UNL d   1       3.224  13.381  -1.614  0.00  0.00     0.160 HD
ENDBRANCH  20  21
ENDBRANCH  19  20
ENDBRANCH   6  19
BRANCH   4  31
ATOM     31  C   UNL d   1       1.646   5.353   0.409  0.00  0.00     0.073 C 
ATOM     32  C   UNL d   1       1.672   4.636   1.636  0.00  0.00     0.020 C 
ATOM     33  C   UNL d   1       0.483   4.463   2.370  0.00  0.00     0.001 C 
ATOM     34  C   UNL d   1      -0.665   5.135   1.978  0.00  0.00     0.003 C 
ATOM     35  C   UNL d   1      -0.639   5.938   0.842  0.00  0.00     0.043 C 
ATOM     36  C   UNL d   1       0.499   6.023   0.062  0.00  0.00     0.132 C 
ATOM     37  F   UNL d   1       0.467   6.741  -1.070  0.00  0.00    -0.205 F 
ENDBRANCH   4  31
TORSDOF 7
