@<TRIPOS>MOLECULE
*****
 63 67 0 0 0
SMALL
GASTEIGER

@<TRIPOS>ATOM
      1 C           2.4337   -0.4644   -0.0067 C.3     1  UNL1       -0.0380
      2 C           0.9836   -0.1573   -0.0006 C.ar    1  UNL1       -0.0291
      3 C           0.1356   -1.2696    0.0030 C.ar    1  UNL1       -0.0553
      4 C          -1.2472   -1.1236   -0.0054 C.ar    1  UNL1       -0.0401
      5 C          -1.7985    0.1626   -0.0132 C.ar    1  UNL1        0.0365
      6 N          -3.2140    0.3202   -0.0367 N.am    1  UNL1       -0.2694
      7 C          -3.8792    1.5451   -0.0221 C.2     1  UNL1        0.3042
      8 O          -3.3841    2.6623   -0.0036 O.2     1  UNL1       -0.2525
      9 N          -5.2335    1.4020   -0.0644 N.am    1  UNL1       -0.2935
     10 C          -6.1530    2.5390   -0.0620 C.3     1  UNL1        0.0560
     11 C          -7.6414    2.1737   -0.0832 C.ar    1  UNL1        0.0660
     12 N          -8.4755    3.2591   -0.1473 N.ar    1  UNL1       -0.2577
     13 C          -9.8061    3.0384   -0.1989 C.ar    1  UNL1        0.0285
     14 C         -10.3697    1.7774   -0.2249 C.ar    1  UNL1       -0.0359
     15 C          -9.5335    0.6566   -0.1891 C.ar    1  UNL1       -0.0147
     16 C         -10.0826   -0.6439   -0.2354 C.ar    1  UNL1       -0.0539
     17 C          -9.2805   -1.7871   -0.2295 C.ar    1  UNL1       -0.0612
     18 C          -7.9191   -1.6542   -0.1177 C.ar    1  UNL1       -0.0611
     19 C          -7.3856   -0.3836    0.0211 C.ar    1  UNL1       -0.0523
     20 C          -8.1369    0.8260   -0.0854 C.ar    1  UNL1        0.0050
     21 C          -0.9230    1.2732   -0.0013 C.ar    1  UNL1       -0.0189
     22 C           0.4774    1.1465   -0.0011 C.ar    1  UNL1        0.0394
     23 N           1.2734    2.3439   -0.0160 N.am    1  UNL1       -0.2692
     24 C           2.6623    2.4324   -0.0064 C.2     1  UNL1        0.3042
     25 O           3.5254    1.6035    0.0365 O.2     1  UNL1       -0.2525
     26 N           3.1556    3.6828   -0.0872 N.am    1  UNL1       -0.2935
     27 C           4.6096    3.8278    0.0189 C.3     1  UNL1        0.0560
     28 C           5.0766    5.2584    0.0623 C.ar    1  UNL1        0.0660
     29 N           6.4284    5.4143   -0.0646 N.ar    1  UNL1       -0.2577
     30 C           6.9020    6.6706   -0.0956 C.ar    1  UNL1        0.0285
     31 C           6.0866    7.7870   -0.0514 C.ar    1  UNL1       -0.0359
     32 C           4.6962    7.6275    0.0505 C.ar    1  UNL1       -0.0147
     33 C           3.8200    8.7317    0.0655 C.ar    1  UNL1       -0.0539
     34 C           2.4285    8.5809    0.1237 C.ar    1  UNL1       -0.0612
     35 C           1.8819    7.3298    0.2506 C.ar    1  UNL1       -0.0611
     36 C           2.7459    6.2632    0.3677 C.ar    1  UNL1       -0.0523
     37 C           4.1584    6.3432    0.1630 C.ar    1  UNL1        0.0050
     38 H           2.7185   -1.5099   -0.0057 H       1  UNL1        0.0278
     39 H           2.8355   -0.0646    0.9329 H       1  UNL1        0.0278
     40 H           2.8270   -0.0608   -0.9490 H       1  UNL1        0.0278
     41 H           0.5958   -2.2562    0.0085 H       1  UNL1        0.0621
     42 H          -1.8360   -2.0369   -0.0050 H       1  UNL1        0.0636
     43 H          -3.7656   -0.5307   -0.0153 H       1  UNL1        0.1564
     44 H          -5.4724    0.7321   -0.7704 H       1  UNL1        0.1506
     45 H          -5.9217    3.1298   -0.9591 H       1  UNL1        0.0528
     46 H          -5.9468    3.1783    0.8068 H       1  UNL1        0.0528
     47 H         -10.4364    3.9260   -0.2205 H       1  UNL1        0.0830
     48 H         -11.4499    1.6740   -0.2669 H       1  UNL1        0.0639
     49 H         -11.1597   -0.7821   -0.2771 H       1  UNL1        0.0624
     50 H          -9.7108   -2.7813   -0.2726 H       1  UNL1        0.0618
     51 H          -7.2521   -2.5110   -0.0877 H       1  UNL1        0.0618
     52 H          -6.3406   -0.4219    0.2808 H       1  UNL1        0.0624
     53 H          -1.3346    2.2724    0.0068 H       1  UNL1        0.0655
     54 H           0.7501    3.2116    0.0254 H       1  UNL1        0.1564
     55 H           2.7397    4.2123   -0.8318 H       1  UNL1        0.1506
     56 H           5.0359    3.3297   -0.8635 H       1  UNL1        0.0528
     57 H           4.9920    3.2960    0.9047 H       1  UNL1        0.0528
     58 H           7.9833    6.7661   -0.1630 H       1  UNL1        0.0830
     59 H           6.5329    8.7738   -0.0876 H       1  UNL1        0.0639
     60 H           4.2222    9.7382    0.0293 H       1  UNL1        0.0624
     61 H           1.7672    9.4385    0.1211 H       1  UNL1        0.0618
     62 H           0.8127    7.1507    0.3173 H       1  UNL1        0.0618
     63 H           2.2359    5.3605    0.6742 H       1  UNL1        0.0624
@<TRIPOS>BOND
     1     1     2    1
     2     2     3   ar
     3     3     4   ar
     4     4     5   ar
     5     5     6    1
     6     6     7   am
     7     7     8    2
     8     7     9   am
     9     9    10    1
    10    10    11    1
    11    11    12   ar
    12    12    13   ar
    13    13    14   ar
    14    14    15   ar
    15    15    16   ar
    16    16    17   ar
    17    17    18   ar
    18    18    19   ar
    19    19    20   ar
    20    11    20   ar
    21    15    20   ar
    22     5    21   ar
    23    21    22   ar
    24     2    22   ar
    25    22    23    1
    26    23    24   am
    27    24    25    2
    28    24    26   am
    29    26    27    1
    30    27    28    1
    31    28    29   ar
    32    29    30   ar
    33    30    31   ar
    34    31    32   ar
    35    32    33   ar
    36    33    34   ar
    37    34    35   ar
    38    35    36   ar
    39    36    37   ar
    40    28    37   ar
    41    32    37   ar
    42     1    38    1
    43     1    39    1
    44     1    40    1
    45     3    41    1
    46     4    42    1
    47     6    43    1
    48     9    44    1
    49    10    45    1
    50    10    46    1
    51    13    47    1
    52    14    48    1
    53    16    49    1
    54    17    50    1
    55    18    51    1
    56    19    52    1
    57    21    53    1
    58    23    54    1
    59    26    55    1
    60    27    56    1
    61    27    57    1
    62    30    58    1
    63    31    59    1
    64    33    60    1
    65    34    61    1
    66    35    62    1
    67    36    63    1
