REMARK  7 active torsions:
REMARK  status: ('A' for Active; 'I' for Inactive)
REMARK    1  A    between atoms: C_2  and  N_3 
REMARK       I    between atoms: N_3  and  C_4 
REMARK    2  A    between atoms: C_4  and  C_6 
REMARK    3  A    between atoms: C_11  and  N_12 
REMARK       I    between atoms: N_12  and  C_13 
REMARK    4  A    between atoms: C_13  and  C_15 
REMARK       I    between atoms: C_15  and  N_17 
REMARK    5  A    between atoms: N_17  and  C_18 
REMARK    6  A    between atoms: C_18  and  C_19 
REMARK    7  A    between atoms: C_18  and  C_24 
ROOT
ATOM      1  N   UNL d   1       4.862   1.560   3.635  0.00  0.00    -0.318 N 
ATOM      2  C   UNL d   1       3.479   1.826   3.657  0.00  0.00     0.314 C 
ATOM      3  O   UNL d   1       2.598   1.399   2.921  0.00  0.00    -0.262 OA
ATOM      4  H   UNL d   1       5.423   2.087   4.297  0.00  0.00     0.169 HD
ENDROOT
BRANCH   1   5
ATOM      5  C   UNL d   1       5.524   0.648   2.757  0.00  0.00     0.042 C 
ATOM      6  C   UNL d   1       6.911   0.436   2.737  0.00  0.00    -0.035 C 
ATOM      7  C   UNL d   1       7.461  -0.488   1.806  0.00  0.00     0.010 C 
ATOM      8  C   UNL d   1       7.833   1.111   3.711  0.00  0.00     0.050 C 
ATOM      9  C   UNL d   1       6.653  -1.162   0.876  0.00  0.00     0.017 C 
ATOM     10  C   UNL d   1       5.280  -0.950   0.896  0.00  0.00     0.034 C 
ATOM     11  C   UNL d   1       4.765  -0.123   1.889  0.00  0.00     0.047 C 
BRANCH  10  12
ATOM     12  C   UNL d   1       4.337  -1.687   0.003  0.00  0.00     0.251 C 
ATOM     13  N   UNL d   1       2.975  -1.407   0.068  0.00  0.00    -0.357 N 
ATOM     14  H   UNL d   1       2.440  -2.152  -0.360  0.00  0.00     0.162 HD
ATOM     15  O   UNL d   1       4.743  -2.600  -0.709  0.00  0.00    -0.268 OA
BRANCH  13  16
ATOM     16  C   UNL d   1       2.396  -0.070  -0.100  0.00  0.00     0.118 C 
ATOM     17  C   UNL d   1       0.882  -0.088  -0.051  0.00  0.00     0.026 C 
ENDBRANCH  13  16
ENDBRANCH  10  12
ENDBRANCH   1   5
BRANCH   2  18
ATOM     18  C   UNL d   1       3.002   2.789   4.759  0.00  0.00     0.310 C 
ATOM     19  O   UNL d   1       3.790   3.138   5.613  0.00  0.00    -0.262 OA
ATOM     20  N   UNL d   1       1.663   3.180   4.629  0.00  0.00    -0.343 N 
ATOM     21  H   UNL d   1       1.135   2.708   3.898  0.00  0.00     0.163 HD
BRANCH  20  22
ATOM     22  C   UNL d   1       0.995   4.176   5.492  0.00  0.00     0.128 C 
BRANCH  22  23
ATOM     23  C   UNL d   1       1.566   5.596   5.222  0.00  0.00     0.005 A 
ATOM     24  C   UNL d   1       1.033   6.833   5.550  0.00  0.00     0.017 A 
ATOM     25  C   UNL d   1       1.795   7.954   5.153  0.00  0.00     0.008 A 
ATOM     26  C   UNL d   1       2.992   7.572   4.619  0.00  0.00     0.050 A 
ATOM     27  S   UNL d   1       3.109   5.883   4.482  0.00  0.00    -0.104 SA
ENDBRANCH  22  23
BRANCH  22  28
ATOM     28  C   UNL d   1      -0.583   4.144   5.317  0.00  0.00     0.005 C 
ATOM     29  C   UNL d   1      -1.182   2.744   5.513  0.00  0.00     0.012 C 
ATOM     30  C   UNL d   1      -1.379   5.012   6.316  0.00  0.00     0.012 C 
ENDBRANCH  22  28
ENDBRANCH  20  22
ENDBRANCH   2  18
TORSDOF 7
