@<TRIPOS>MOLECULE
*****
 34 35 0 0 0
SMALL
GASTEIGER

@<TRIPOS>ATOM
      1 C           0.9971   -0.4367   -0.4864 C.3     1  UNL1        0.0789
      2 O           2.4066   -0.3463   -0.2975 O.3     1  UNL1       -0.4933
      3 C           3.0073    0.7970   -0.7533 C.ar    1  UNL1        0.1412
      4 C           4.1533    0.5476   -1.5345 C.ar    1  UNL1       -0.0181
      5 C           4.8387    1.5844   -2.1607 C.ar    1  UNL1       -0.0582
      6 C           4.3377    2.8761   -2.0584 C.ar    1  UNL1       -0.0598
      7 C           3.2224    3.1412   -1.2374 C.ar    1  UNL1       -0.0369
      8 C           2.5809    2.1168   -0.5091 C.ar    1  UNL1        0.0768
      9 N           1.5097    2.4697    0.3808 N.am    1  UNL1       -0.2652
     10 C           1.0791    1.6957    1.4618 C.2     1  UNL1        0.3202
     11 O           1.7695    0.8580    2.0508 O.2     1  UNL1       -0.2509
     12 N          -0.3114    1.7732    1.6749 N.am    1  UNL1       -0.2200
     13 N          -0.8245    0.8209    2.5860 N.pl3   1  UNL1       -0.2605
     14 C          -2.1099    0.9720    3.1409 C.ar    1  UNL1        0.0796
     15 C          -2.3608    0.3064    4.3564 C.ar    1  UNL1       -0.0366
     16 C          -3.5850    0.4304    5.0247 C.ar    1  UNL1       -0.0598
     17 C          -4.5798    1.2509    4.5028 C.ar    1  UNL1       -0.0589
     18 C          -4.3648    1.9005    3.2881 C.ar    1  UNL1       -0.0246
     19 C          -3.1447    1.7550    2.6172 C.ar    1  UNL1        0.1456
     20 F          -2.9894    2.3914    1.4456 F       1  UNL1       -0.2035
     21 H           0.6119   -1.1160    0.2814 H       1  UNL1        0.0660
     22 H           0.7669   -0.8207   -1.4783 H       1  UNL1        0.0660
     23 H           0.4401    0.4938   -0.4049 H       1  UNL1        0.0660
     24 H           4.4956   -0.4758   -1.6744 H       1  UNL1        0.0655
     25 H           5.7387    1.3787   -2.7380 H       1  UNL1        0.0619
     26 H           4.8279    3.6776   -2.6095 H       1  UNL1        0.0618
     27 H           2.8966    4.1750   -1.1617 H       1  UNL1        0.0637
     28 H           1.1191    3.3948    0.2888 H       1  UNL1        0.1565
     29 H          -0.7705    2.6767    1.6802 H       1  UNL1        0.1743
     30 H          -0.5649   -0.1453    2.3633 H       1  UNL1        0.1701
     31 H          -1.5689   -0.2791    4.8219 H       1  UNL1        0.0637
     32 H          -3.7516   -0.1017    5.9590 H       1  UNL1        0.0618
     33 H          -5.5138    1.3871    5.0436 H       1  UNL1        0.0618
     34 H          -5.1419    2.5258    2.8593 H       1  UNL1        0.0647
@<TRIPOS>BOND
     1     1     2    1
     2     2     3    1
     3     3     4   ar
     4     4     5   ar
     5     5     6   ar
     6     6     7   ar
     7     7     8   ar
     8     3     8   ar
     9     8     9    1
    10     9    10   am
    11    10    11    2
    12    10    12   am
    13    12    13    1
    14    13    14    1
    15    14    15   ar
    16    15    16   ar
    17    16    17   ar
    18    17    18   ar
    19    18    19   ar
    20    14    19   ar
    21    19    20    1
    22     1    21    1
    23     1    22    1
    24     1    23    1
    25     4    24    1
    26     5    25    1
    27     6    26    1
    28     7    27    1
    29     9    28    1
    30    12    29    1
    31    13    30    1
    32    15    31    1
    33    16    32    1
    34    17    33    1
    35    18    34    1
