REMARK  8 active torsions:
REMARK  status: ('A' for Active; 'I' for Inactive)
REMARK    1  A    between atoms: C_2  and  C_3 
REMARK    2  A    between atoms: C_3  and  C_4 
REMARK       I    between atoms: C_4  and  N_6 
REMARK    3  A    between atoms: N_6  and  C_7 
REMARK    4  A    between atoms: C_10  and  C_11 
REMARK       I    between atoms: C_11  and  N_13 
REMARK    5  A    between atoms: N_13  and  N_14 
REMARK    6  A    between atoms: N_14  and  C_15 
REMARK    7  A    between atoms: C_15  and  N_17 
REMARK       I    between atoms: N_17  and  C_18 
REMARK    8  A    between atoms: C_18  and  C_20 
ROOT
ATOM      1  C   UNL d   1      11.091  -2.346  -1.437  0.00  0.00     0.270 C 
ATOM      2  O   UNL d   1      11.694  -2.593  -2.486  0.00  0.00    -0.266 OA
ATOM      3  N   UNL d   1      11.766  -2.059  -0.256  0.00  0.00    -0.264 N 
ATOM      4  H   UNL d   1      11.290  -1.825   0.613  0.00  0.00     0.190 HD
ENDROOT
BRANCH   3   5
ATOM      5  N   UNL d   1      13.217  -2.009  -0.158  0.00  0.00    -0.273 N 
ATOM      6  H   UNL d   1      13.712  -2.200  -1.027  0.00  0.00     0.189 HD
BRANCH   5   7
ATOM      7  C   UNL d   1      13.794  -1.715   1.095  0.00  0.00     0.193 C 
ATOM      8  S   UNL d   1      12.786  -1.414   2.419  0.00  0.00    -0.039 SA
BRANCH   7   9
ATOM      9  N   UNL d   1      15.210  -1.697   1.132  0.00  0.00    -0.298 N 
ATOM     10  C   UNL d   1      16.013  -1.482   2.277  0.00  0.00     0.257 C 
ATOM     11  O   UNL d   1      15.583  -1.270   3.413  0.00  0.00    -0.267 OA
ATOM     12  H   UNL d   1      15.698  -1.907   0.273  0.00  0.00     0.171 HD
BRANCH  10  13
ATOM     13  C   UNL d   1      17.505  -1.484   2.193  0.00  0.00     0.033 A 
ATOM     14  C   UNL d   1      18.230  -2.002   3.286  0.00  0.00     0.017 A 
ATOM     15  C   UNL d   1      19.617  -1.828   3.389  0.00  0.00     0.009 A 
ATOM     16  C   UNL d   1      20.327  -1.187   2.366  0.00  0.00    -0.045 A 
ATOM     17  C   UNL d   1      21.831  -1.151   2.426  0.00  0.00     0.049 C 
ATOM     18  C   UNL d   1      19.595  -0.644   1.294  0.00  0.00     0.017 A 
ATOM     19 BR   UNL d   1      20.456   0.361  -0.072  0.00  0.00    -0.051 Br
ATOM     20  C   UNL d   1      18.196  -0.786   1.205  0.00  0.00     0.036 A 
ENDBRANCH  10  13
ENDBRANCH   7   9
ENDBRANCH   5   7
ENDBRANCH   3   5
BRANCH   1  21
ATOM     21  C   UNL d   1       9.565  -2.320  -1.419  0.00  0.00     0.033 A 
ATOM     22  C   UNL d   1       8.836  -2.553  -2.606  0.00  0.00     0.019 A 
ATOM     23  C   UNL d   1       7.422  -2.431  -2.655  0.00  0.00     0.030 A 
ATOM     24  C   UNL d   1       6.704  -2.101  -1.505  0.00  0.00     0.034 A 
ATOM     25  C   UNL d   1       7.420  -1.912  -0.320  0.00  0.00     0.030 A 
ATOM     26  C   UNL d   1       8.822  -2.027  -0.270  0.00  0.00     0.019 A 
BRANCH  24  27
ATOM     27  N   UNL d   1       5.285  -2.000  -1.513  0.00  0.00    -0.327 N 
ATOM     28  C   UNL d   1       4.612  -1.037  -0.766  0.00  0.00     0.222 C 
ATOM     29  O   UNL d   1       5.183  -0.158  -0.122  0.00  0.00    -0.273 OA
ATOM     30  H   UNL d   1       4.770  -2.547  -2.192  0.00  0.00     0.169 HD
BRANCH  28  31
ATOM     31  C   UNL d   1       3.087  -1.098  -0.815  0.00  0.00     0.103 C 
BRANCH  31  32
ATOM     32  C   UNL d   1       2.498   0.057   0.014  0.00  0.00     0.005 C 
ATOM     33  C   UNL d   1       0.981   0.072   0.024  0.00  0.00     0.005 C 
ENDBRANCH  31  32
ENDBRANCH  28  31
ENDBRANCH  24  27
ENDBRANCH   1  21
TORSDOF 8
