@<TRIPOS>MOLECULE
*****
 39 40 0 0 0
SMALL
GASTEIGER

@<TRIPOS>ATOM
      1 C           1.0614   -0.1200    0.0369 C.3     1  UNL1        0.0820
      2 O           2.5001   -0.1060    0.0477 O.3     1  UNL1       -0.4645
      3 C           3.0660   -1.2831    0.4144 C.2     1  UNL1        0.3389
      4 O           2.4556   -2.3059    0.7143 O.2     1  UNL1       -0.2450
      5 C           4.5559   -1.2164    0.4184 C.ar    1  UNL1        0.0590
      6 C           5.3007   -2.3325    0.0160 C.ar    1  UNL1       -0.0471
      7 C           6.7037   -2.3553    0.1741 C.ar    1  UNL1       -0.0488
      8 C           7.4039   -1.2392    0.6736 C.ar    1  UNL1        0.0382
      9 C           8.9226   -1.2724    0.7030 C.2     1  UNL1        0.2601
     10 O           9.5284   -2.2719    0.3182 O.2     1  UNL1       -0.2687
     11 N           9.5997   -0.1386    1.1373 N.am    1  UNL1       -0.2304
     12 N          11.0271   -0.0982    1.1302 N.am    1  UNL1       -0.2339
     13 C          11.6327    1.0589    1.5965 C.2     1  UNL1        0.2334
     14 O          10.9347    2.0016    1.9816 O.2     1  UNL1       -0.2739
     15 C          13.1786    1.0906    1.5851 C.3     1  UNL1        0.0505
     16 C          13.7150    2.4283    2.0824 C.ar    1  UNL1       -0.0385
     17 C          14.3729    2.5570    3.3156 C.ar    1  UNL1       -0.0567
     18 C          14.5899    3.8272    3.8668 C.ar    1  UNL1       -0.0431
     19 C          14.2392    4.9696    3.1488 C.ar    1  UNL1        0.0410
     20 CL         14.5577    6.5296    3.8025 Cl      1  UNL1       -0.0835
     21 C          13.6530    4.8561    1.8930 C.ar    1  UNL1       -0.0431
     22 C          13.4072    3.5917    1.3573 C.ar    1  UNL1       -0.0567
     23 C           6.6444   -0.1309    1.0797 C.ar    1  UNL1       -0.0488
     24 C           5.2370   -0.1172    0.9509 C.ar    1  UNL1       -0.0471
     25 H           0.7040    0.8518   -0.3198 H       1  UNL1        0.0661
     26 H           0.6701   -0.2740    1.0486 H       1  UNL1        0.0661
     27 H           0.6759   -0.8903   -0.6410 H       1  UNL1        0.0661
     28 H           4.7938   -3.1939   -0.4192 H       1  UNL1        0.0626
     29 H           7.2428   -3.2659   -0.0892 H       1  UNL1        0.0625
     30 H           9.1568    0.7234    1.4464 H       1  UNL1        0.1731
     31 H          11.5139   -0.9259    0.7939 H       1  UNL1        0.1728
     32 H          13.5451    0.9221    0.5648 H       1  UNL1        0.0407
     33 H          13.5595    0.2758    2.2124 H       1  UNL1        0.0407
     34 H          14.6898    1.6821    3.8790 H       1  UNL1        0.0621
     35 H          15.0030    3.9216    4.8683 H       1  UNL1        0.0632
     36 H          13.3442    5.7401    1.3426 H       1  UNL1        0.0632
     37 H          12.9024    3.5157    0.3967 H       1  UNL1        0.0621
     38 H           7.1121    0.7414    1.5233 H       1  UNL1        0.0625
     39 H           4.6794    0.7506    1.2962 H       1  UNL1        0.0626
@<TRIPOS>BOND
     1     1     2    1
     2     2     3    1
     3     3     4    2
     4     3     5    1
     5     5     6   ar
     6     6     7   ar
     7     7     8   ar
     8     8     9    1
     9     9    10    2
    10     9    11   am
    11    11    12    1
    12    12    13   am
    13    13    14    2
    14    13    15    1
    15    15    16    1
    16    16    17   ar
    17    17    18   ar
    18    18    19   ar
    19    19    20    1
    20    19    21   ar
    21    21    22   ar
    22    16    22   ar
    23     8    23   ar
    24    23    24   ar
    25     5    24   ar
    26     1    25    1
    27     1    26    1
    28     1    27    1
    29     6    28    1
    30     7    29    1
    31    11    30    1
    32    12    31    1
    33    15    32    1
    34    15    33    1
    35    17    34    1
    36    18    35    1
    37    21    36    1
    38    22    37    1
    39    23    38    1
    40    24    39    1
