@<TRIPOS>MOLECULE
*****
 49 50 0 0 0
SMALL
GASTEIGER

@<TRIPOS>ATOM
      1 C           1.0530    0.1857    0.0321 C.3     1  UNL1        0.0125
      2 C           2.5525    0.0869    0.0861 C.2     1  UNL1        0.2141
      3 O           3.0815   -1.0229    0.0306 O.2     1  UNL1       -0.2758
      4 N           3.2295    1.2941    0.2644 N.am    1  UNL1       -0.2857
      5 C           4.6445    1.3899    0.2089 C.ar    1  UNL1        0.0351
      6 C           5.3896    2.2759    0.9597 C.ar    1  UNL1       -0.0404
      7 C           6.7846    2.3115    0.7691 C.ar    1  UNL1       -0.0583
      8 C           7.4309    1.4711   -0.1820 C.ar    1  UNL1       -0.0404
      9 C           6.6768    0.6019   -0.9811 C.ar    1  UNL1        0.0344
     10 N           7.2363   -0.2224   -2.0343 N.am    1  UNL1       -0.2957
     11 C           6.5531   -1.0584   -2.9606 C.2     1  UNL1        0.1510
     12 S           4.8873   -1.3468   -3.1578 S.2     1  UNL1       -0.0171
     13 N           7.3846   -1.7419   -3.8600 N.am    1  UNL1       -0.2456
     14 N           6.7370   -2.6253   -4.8008 N.am    1  UNL1       -0.2351
     15 C           7.4156   -3.3322   -5.7546 C.2     1  UNL1        0.2295
     16 O           8.6406   -3.2522   -5.8779 O.2     1  UNL1       -0.2743
     17 C           6.5339   -4.2174   -6.6377 C.3     1  UNL1        0.0338
     18 C           7.4015   -4.9631   -7.6514 C.3     1  UNL1        0.0348
     19 C           6.6186   -5.8080   -8.5826 C.ar    1  UNL1        0.2278
     20 N           5.7442   -5.4437   -9.4890 N.ar    1  UNL1       -0.1958
     21 C           5.4375   -6.6350  -10.1011 C.ar    1  UNL1        0.1743
     22 C           4.4574   -6.7250  -11.2289 C.3     1  UNL1        0.0167
     23 C           3.2841   -7.6438  -10.8823 C.3     1  UNL1       -0.0556
     24 C           3.9184   -5.3406  -11.6070 C.3     1  UNL1       -0.0556
     25 N           6.0853   -7.6997   -9.6065 N.ar    1  UNL1       -0.0610
     26 O           6.8730   -7.1503   -8.5880 O.2     1  UNL1       -0.3380
     27 C           5.3160    0.5951   -0.7125 C.ar    1  UNL1       -0.0192
     28 H           0.6456   -0.8305   -0.0504 H       1  UNL1        0.0323
     29 H           0.7217    0.7510   -0.8415 H       1  UNL1        0.0323
     30 H           0.6733    0.6278    0.9541 H       1  UNL1        0.0323
     31 H           2.7065    2.1379    0.4538 H       1  UNL1        0.1548
     32 H           4.9227    2.8766    1.7345 H       1  UNL1        0.0636
     33 H           7.3728    3.0064    1.3696 H       1  UNL1        0.0619
     34 H           8.5144    1.5355   -0.2589 H       1  UNL1        0.0636
     35 H           8.2436   -0.1499   -2.1306 H       1  UNL1        0.1539
     36 H           8.3946   -1.6592   -3.9399 H       1  UNL1        0.1718
     37 H           5.7200   -2.6818   -4.6933 H       1  UNL1        0.1728
     38 H           5.7905   -3.5951   -7.1548 H       1  UNL1        0.0363
     39 H           5.9809   -4.9322   -6.0136 H       1  UNL1        0.0363
     40 H           8.1432   -5.5752   -7.1258 H       1  UNL1        0.0365
     41 H           7.9603   -4.2351   -8.2521 H       1  UNL1        0.0365
     42 H           4.9730   -7.1381  -12.1067 H       1  UNL1        0.0375
     43 H           2.7461   -7.2774  -10.0007 H       1  UNL1        0.0236
     44 H           3.6259   -8.6615  -10.6646 H       1  UNL1        0.0236
     45 H           2.5735   -7.7022  -11.7140 H       1  UNL1        0.0236
     46 H           3.3979   -4.8797  -10.7587 H       1  UNL1        0.0236
     47 H           3.2144   -5.4007  -12.4425 H       1  UNL1        0.0236
     48 H           4.7337   -4.6692  -11.8997 H       1  UNL1        0.0236
     49 H           4.6642   -0.0358   -1.2628 H       1  UNL1        0.0655
@<TRIPOS>BOND
     1     1     2    1
     2     2     3    2
     3     2     4   am
     4     4     5    1
     5     5     6   ar
     6     6     7   ar
     7     7     8   ar
     8     8     9   ar
     9     9    10    1
    10    10    11    1
    11    11    12    2
    12    11    13    1
    13    13    14    1
    14    14    15   am
    15    15    16    2
    16    15    17    1
    17    17    18    1
    18    18    19    1
    19    19    20   ar
    20    20    21   ar
    21    21    22    1
    22    22    23    1
    23    22    24    1
    24    21    25   ar
    25    25    26   ar
    26    19    26   ar
    27     9    27   ar
    28     5    27   ar
    29     1    28    1
    30     1    29    1
    31     1    30    1
    32     4    31    1
    33     6    32    1
    34     7    33    1
    35     8    34    1
    36    10    35    1
    37    13    36    1
    38    14    37    1
    39    17    38    1
    40    17    39    1
    41    18    40    1
    42    18    41    1
    43    22    42    1
    44    23    43    1
    45    23    44    1
    46    23    45    1
    47    24    46    1
    48    24    47    1
    49    24    48    1
    50    27    49    1
