@<TRIPOS>MOLECULE
*****
 32 33 0 0 0
SMALL
GASTEIGER

@<TRIPOS>ATOM
      1 C           1.0827    0.0052    0.0888 C.3     1  UNL1        0.0125
      2 C           2.5879   -0.0904    0.0621 C.2     1  UNL1        0.2142
      3 O           3.1241   -1.1510   -0.2546 O.2     1  UNL1       -0.2758
      4 N           3.2695    1.0500    0.4823 N.am    1  UNL1       -0.2834
      5 C           4.6928    1.0949    0.4803 C.ar    1  UNL1        0.0697
      6 C           5.4106    1.6524    1.5534 C.ar    1  UNL1       -0.0255
      7 C           6.8347    1.6300    1.5708 C.ar    1  UNL1        0.0390
      8 C           7.5578    2.1823    2.7664 C.2     1  UNL1        0.2484
      9 O           6.8775    2.7282    3.6392 O.2     1  UNL1       -0.2699
     10 N           8.9532    2.1302    2.8077 N.am    1  UNL1       -0.2790
     11 C           9.6853    2.6400    3.9192 C.ar    1  UNL1        0.0709
     12 C          10.7818    3.4798    3.6826 C.ar    1  UNL1       -0.0361
     13 C          11.4649    4.0491    4.7629 C.ar    1  UNL1       -0.0417
     14 C          11.0700    3.7150    6.0479 C.ar    1  UNL1        0.0294
     15 N          10.0678    2.8589    6.3198 N.ar    1  UNL1       -0.2417
     16 C           9.3900    2.3519    5.2600 C.ar    1  UNL1        0.1503
     17 CL          8.2894    1.1130    5.7427 Cl      1  UNL1       -0.0601
     18 C           7.5190    1.0860    0.4772 C.ar    1  UNL1       -0.0468
     19 C           6.8065    0.5876   -0.6132 C.ar    1  UNL1       -0.0239
     20 C           5.4165    0.5914   -0.6060 C.ar    1  UNL1        0.1445
     21 F           4.7882    0.1844   -1.7189 F       1  UNL1       -0.2035
     22 H           0.6702   -0.9493   -0.2629 H       1  UNL1        0.0323
     23 H           0.7254    0.7903   -0.5810 H       1  UNL1        0.0323
     24 H           0.7228    0.1707    1.1067 H       1  UNL1        0.0323
     25 H           2.7625    1.7503    1.0094 H       1  UNL1        0.1549
     26 H           4.8790    2.0507    2.4176 H       1  UNL1        0.0644
     27 H           9.4757    1.9880    1.9548 H       1  UNL1        0.1552
     28 H          11.0795    3.7592    2.6752 H       1  UNL1        0.0637
     29 H          12.2770    4.7547    4.6130 H       1  UNL1        0.0633
     30 H          11.5663    4.1333    6.9199 H       1  UNL1        0.0830
     31 H           8.5997    1.0374    0.4292 H       1  UNL1        0.0626
     32 H           7.3210    0.1952   -1.4845 H       1  UNL1        0.0647
@<TRIPOS>BOND
     1     1     2    1
     2     2     3    2
     3     2     4   am
     4     4     5    1
     5     5     6   ar
     6     6     7   ar
     7     7     8    1
     8     8     9    2
     9     8    10   am
    10    10    11    1
    11    11    12   ar
    12    12    13   ar
    13    13    14   ar
    14    14    15   ar
    15    15    16   ar
    16    11    16   ar
    17    16    17    1
    18     7    18   ar
    19    18    19   ar
    20    19    20   ar
    21     5    20   ar
    22    20    21    1
    23     1    22    1
    24     1    23    1
    25     1    24    1
    26     4    25    1
    27     6    26    1
    28    10    27    1
    29    12    28    1
    30    13    29    1
    31    14    30    1
    32    18    31    1
    33    19    32    1
