@<TRIPOS>MOLECULE
*****
 58 61 0 0 0
SMALL
GASTEIGER

@<TRIPOS>ATOM
      1 CG1         1.0624    0.1531   -0.1772 C.3     1  VAL1       -0.0606
      2 CB          2.5961    0.0880   -0.0953 C.3     1  VAL1       -0.0230
      3 CG2         3.0946    1.4876    0.2353 C.3     1  VAL1       -0.0606
      4 CA          3.0923   -0.9722    0.9022 C.3     1  VAL1        0.0649
      5 N           2.4158   -2.2510    0.4862 N.am    1  VAL1       -0.3056
      6 C           1.1888   -2.6081    1.0312 C.2     0  UNK0        0.2345
      7 O           0.6081   -1.8680    1.8285 O.2     0  UNK0       -0.2737
      8 C           0.5908   -3.9956    0.6783 C.3     0  UNK0        0.1103
      9 C           1.1737   -4.9729    1.7352 C.3     0  UNK0        0.0017
     10 C           2.6768   -5.0563    1.8003 C.ar    0  UNK0       -0.0201
     11 C           3.5398   -4.0625    2.1931 C.ar    0  UNK0        0.0060
     12 N           4.8132   -4.4011    1.8223 N.ar    0  UNK0       -0.3604
     13 C           4.8503   -5.7633    1.6936 C.ar    0  UNK0        0.0467
     14 C           5.9370   -6.6336    1.6229 C.ar    0  UNK0       -0.0378
     15 C           5.6430   -7.9987    1.5980 C.ar    0  UNK0       -0.0598
     16 C           4.3255   -8.4611    1.6109 C.ar    0  UNK0       -0.0611
     17 C           3.2528   -7.5708    1.6311 C.ar    0  UNK0       -0.0523
     18 C           3.5178   -6.1967    1.6845 C.ar    0  UNK0        0.0029
     19 N          -0.9342   -4.0245    0.6335 N.am    0  UNK0       -0.2445
     20 C          -1.6191   -5.2095    0.3492 C.2     0  UNK0        0.2521
     21 O          -1.3734   -6.2921    0.8370 O.2     0  UNK0       -0.2698
     22 C          -2.7221   -5.0821   -0.6544 C.ar    0  UNK0        0.0579
     23 C          -3.3772   -6.2129   -1.1454 C.ar    0  UNK0       -0.0478
     24 C          -4.3404   -6.0670   -2.1443 C.ar    0  UNK0       -0.0609
     25 C          -4.6474   -4.7994   -2.6411 C.ar    0  UNK0       -0.0600
     26 C          -3.9929   -3.6728   -2.1403 C.ar    0  UNK0       -0.0400
     27 C          -3.0206   -3.8066   -1.1477 C.ar    0  UNK0        0.0424
     28 N          -2.4536   -2.6956   -0.5683 N.pl3   0  UNK0       -0.3031
     29 C          -1.7349   -2.8248    0.6610 C.3     0  UNK0        0.1965
     30 O          -2.6787   -2.9437    1.7090 O.3     0  UNK0       -0.3588
     31 C           4.6892   -1.0352    1.0032 C.2     1  VAL1        0.0622
     32 O           5.3393   -0.4904    0.0676 O.co2   1  VAL1       -0.5479
     33 OXT         5.1688   -1.6554    1.9991 O.co2   1  VAL1       -0.5479
     34 HG11        0.7334    0.9155   -0.8839 H       1  VAL1        0.0233
     35 HG12        0.6317    0.3863    0.8038 H       1  VAL1        0.0233
     36 HG13        0.6313   -0.7841   -0.5411 H       1  VAL1        0.0233
     37 HB          2.9646   -0.2067   -1.0859 H       1  VAL1        0.0317
     38 HG21        2.7300    1.8094    1.2155 H       1  VAL1        0.0233
     39 HG22        2.7308    2.1844   -0.5244 H       1  VAL1        0.0233
     40 HG23        4.1825    1.5630    0.2406 H       1  VAL1        0.0233
     41 HA          2.7396   -0.7272    1.9167 H       1  VAL1        0.0562
     42 H           3.0385   -2.9551    0.1029 H       1  VAL1        0.1494
     43 H           0.9231   -4.2911   -0.3301 H       0  UNK0        0.0601
     44 H           0.7984   -5.9800    1.5475 H       0  UNK0        0.0337
     45 H           0.8055   -4.6690    2.7208 H       0  UNK0        0.0337
     46 H           3.3637   -3.0619    2.5572 H       0  UNK0        0.0810
     47 H           5.5839   -3.7315    1.8109 H       0  UNK0        0.1653
     48 H           6.9573   -6.2647    1.6430 H       0  UNK0        0.0638
     49 H           6.4601   -8.7128    1.5855 H       0  UNK0        0.0618
     50 H           4.1193   -9.5255    1.6215 H       0  UNK0        0.0618
     51 H           2.2277   -7.9218    1.6828 H       0  UNK0        0.0624
     52 H          -3.1277   -7.1979   -0.7605 H       0  UNK0        0.0626
     53 H          -4.8477   -6.9428   -2.5391 H       0  UNK0        0.0618
     54 H          -5.4047   -4.6837   -3.4122 H       0  UNK0        0.0618
     55 H          -4.2608   -2.6873   -2.5138 H       0  UNK0        0.0636
     56 H          -2.4248   -1.8004   -1.0313 H       0  UNK0        0.1501
     57 H          -1.2124   -1.8943    0.8262 H       0  UNK0        0.1036
     58 H          -3.2225   -3.7082    1.4769 H       0  UNK0        0.2134
@<TRIPOS>UNITY_ATOM_ATTR
33 1
charge -1
@<TRIPOS>BOND
     1     1     2    1
     2     2     3    1
     3     2     4    1
     4     4     5    1
     5     5     6   am
     6     6     7    2
     7     6     8    1
     8     8     9    1
     9     9    10    1
    10    10    11   ar
    11    11    12   ar
    12    12    13   ar
    13    13    14   ar
    14    14    15   ar
    15    15    16   ar
    16    16    17   ar
    17    17    18   ar
    18    10    18   ar
    19    13    18   ar
    20     8    19    1
    21    19    20   am
    22    20    21    2
    23    20    22    1
    24    22    23   ar
    25    23    24   ar
    26    24    25   ar
    27    25    26   ar
    28    26    27   ar
    29    22    27   ar
    30    27    28    1
    31    28    29    1
    32    19    29    1
    33     4    31    1
    34    31    32   ar
    35    31    33   ar
    36    29    30    1
    37     1    34    1
    38     1    35    1
    39     1    36    1
    40     2    37    1
    41     3    38    1
    42     3    39    1
    43     3    40    1
    44     4    41    1
    45     5    42    1
    46     8    43    1
    47     9    44    1
    48     9    45    1
    49    11    46    1
    50    12    47    1
    51    14    48    1
    52    15    49    1
    53    16    50    1
    54    17    51    1
    55    23    52    1
    56    24    53    1
    57    25    54    1
    58    26    55    1
    59    28    56    1
    60    29    57    1
    61    30    58    1
