@<TRIPOS>MOLECULE
*****
 49 50 0 0 0
SMALL
GASTEIGER

@<TRIPOS>ATOM
      1 C           2.4859   -0.2331   -0.0116 C.3     1  UNL1       -0.0389
      2 C           0.9958   -0.0666   -0.0029 C.ar    1  UNL1       -0.0366
      3 C           0.2027   -1.2532    0.0065 C.ar    1  UNL1       -0.0368
      4 C          -1.1996   -1.2117    0.0025 C.ar    1  UNL1        0.0341
      5 N          -1.9540   -2.4209    0.0071 N.am    1  UNL1       -0.2777
      6 C          -3.3439   -2.5136    0.0046 C.2     1  UNL1        0.3031
      7 O          -4.1589   -1.5946   -0.0045 O.2     1  UNL1       -0.2648
      8 C          -3.9422   -3.9567    0.0155 C.2     1  UNL1        0.2996
      9 O          -3.2231   -4.9465    0.0281 O.2     1  UNL1       -0.2652
     10 N          -5.3160   -3.9380    0.0097 N.am    1  UNL1       -0.3030
     11 C          -6.2224   -5.0715    0.0186 C.3     1  UNL1        0.0437
     12 C          -7.6985   -4.6780    0.0089 C.ar    1  UNL1        0.0098
     13 S          -8.8736   -5.9560   -0.0028 S.2     1  UNL1       -0.0998
     14 C         -10.1927   -4.8709   -0.0151 C.ar    1  UNL1       -0.0238
     15 C          -9.7700   -3.5662   -0.0052 C.ar    1  UNL1       -0.0515
     16 C          -8.3420   -3.4409    0.0093 C.ar    1  UNL1       -0.0387
     17 C          -7.6862   -2.1062    0.0214 C.3     1  UNL1       -0.0389
     18 C          -1.7953    0.0471   -0.0062 C.ar    1  UNL1       -0.0397
     19 C          -1.0322    1.2245   -0.0061 C.ar    1  UNL1       -0.0476
     20 C           0.3720    1.2014   -0.0134 C.ar    1  UNL1        0.0397
     21 C           1.0450    2.5626   -0.0459 C.2     1  UNL1        0.2445
     22 O           0.3467    3.5735   -0.0868 O.2     1  UNL1       -0.2702
     23 N           2.4229    2.6440   -0.0205 N.am    1  UNL1       -0.3090
     24 C           3.1956    3.8722    0.0077 C.3     1  UNL1        0.0178
     25 C           2.8783    4.6633    1.2672 C.3     1  UNL1       -0.0469
     26 C           4.6946    3.5347   -0.0144 C.3     1  UNL1       -0.0469
     27 H           2.8171   -1.2710   -0.0099 H       1  UNL1        0.0278
     28 H           2.9057    0.2219    0.8945 H       1  UNL1        0.0278
     29 H           2.8904    0.2168   -0.9270 H       1  UNL1        0.0278
     30 H           0.7185   -2.2126    0.0103 H       1  UNL1        0.0639
     31 H          -1.4526   -3.3053    0.0165 H       1  UNL1        0.1553
     32 H          -5.6747   -2.9979    0.0009 H       1  UNL1        0.1495
     33 H          -6.0002   -5.6627    0.9137 H       1  UNL1        0.0517
     34 H          -5.9933   -5.6807   -0.8626 H       1  UNL1        0.0517
     35 H         -11.2181   -5.2209   -0.0281 H       1  UNL1        0.0693
     36 H         -10.4506   -2.7216   -0.0089 H       1  UNL1        0.0626
     37 H          -8.4040   -1.2854    0.0244 H       1  UNL1        0.0278
     38 H          -7.0718   -1.9964   -0.8787 H       1  UNL1        0.0278
     39 H          -7.0764   -2.0105    0.9265 H       1  UNL1        0.0278
     40 H          -2.8714    0.1734   -0.0181 H       1  UNL1        0.0636
     41 H          -1.5720    2.1723   -0.0063 H       1  UNL1        0.0626
     42 H           2.9975    1.8346   -0.0020 H       1  UNL1        0.1493
     43 H           2.9351    4.4421   -0.8902 H       1  UNL1        0.0493
     44 H           3.1257    4.0794    2.1615 H       1  UNL1        0.0247
     45 H           1.8154    4.9096    1.3273 H       1  UNL1        0.0247
     46 H           3.4427    5.5981    1.2881 H       1  UNL1        0.0247
     47 H           4.9830    2.9446    0.8660 H       1  UNL1        0.0247
     48 H           5.3009    4.4455   -0.0202 H       1  UNL1        0.0247
     49 H           4.9621    2.9399   -0.8956 H       1  UNL1        0.0247
@<TRIPOS>BOND
     1     1     2    1
     2     2     3   ar
     3     3     4   ar
     4     4     5    1
     5     5     6   am
     6     6     7    2
     7     6     8    1
     8     8     9    2
     9     8    10   am
    10    10    11    1
    11    11    12    1
    12    12    13   ar
    13    13    14   ar
    14    14    15   ar
    15    15    16   ar
    16    12    16   ar
    17    16    17    1
    18     4    18   ar
    19    18    19   ar
    20    19    20   ar
    21     2    20   ar
    22    20    21    1
    23    21    22    2
    24    21    23   am
    25    23    24    1
    26    24    25    1
    27    24    26    1
    28     1    27    1
    29     1    28    1
    30     1    29    1
    31     3    30    1
    32     5    31    1
    33    10    32    1
    34    11    33    1
    35    11    34    1
    36    14    35    1
    37    15    36    1
    38    17    37    1
    39    17    38    1
    40    17    39    1
    41    18    40    1
    42    19    41    1
    43    23    42    1
    44    24    43    1
    45    25    44    1
    46    25    45    1
    47    25    46    1
    48    26    47    1
    49    26    48    1
    50    26    49    1
