@<TRIPOS>MOLECULE
*****
 50 52 0 0 0
SMALL
GASTEIGER

@<TRIPOS>ATOM
      1 C           0.9280   -0.0319    0.0623 C.3     1  UNL1        0.0388
      2 C           2.4180   -0.0310    0.0629 C.ar    1  UNL1        0.2559
      3 N           3.1965    1.0624    0.0630 N.ar    1  UNL1       -0.1987
      4 C           4.5255    0.7321    0.0698 C.ar    1  UNL1        0.1873
      5 C           4.5747   -0.6268    0.0728 C.ar    1  UNL1        0.0734
      6 N           3.2589   -1.0919    0.0630 N.ar    1  UNL1       -0.2934
      7 C           2.8296   -2.5103    0.0551 C.3     1  UNL1        0.0298
      8 C           4.0091   -3.4808    0.0568 C.3     1  UNL1       -0.0191
      9 C           3.5726   -4.9331    0.0425 C.3     1  UNL1        0.0135
     10 N           4.7090   -5.8350    0.0348 N.am    1  UNL1       -0.3113
     11 C           4.5081   -7.2021   -0.0361 C.2     1  UNL1        0.2443
     12 O           3.3925   -7.7122   -0.1019 O.2     1  UNL1       -0.2702
     13 C           5.7150   -8.0638    0.0075 C.ar    1  UNL1        0.0432
     14 C           5.8088   -9.2382   -0.7330 C.ar    1  UNL1       -0.0475
     15 C           6.9070  -10.1031   -0.5479 C.ar    1  UNL1       -0.0332
     16 C           7.9951   -9.7820    0.3090 C.ar    1  UNL1        0.1095
     17 N           9.0536  -10.7234    0.3503 N.pl3   1  UNL1       -0.3092
     18 C          10.2233  -10.7035    1.1313 C.ar    1  UNL1        0.0315
     19 C          11.4877  -10.4711    0.5654 C.ar    1  UNL1       -0.0405
     20 C          12.6009  -10.2677    1.3925 C.ar    1  UNL1       -0.0600
     21 C          12.4371  -10.2010    2.7767 C.ar    1  UNL1       -0.0616
     22 C          11.1857  -10.4324    3.3415 C.ar    1  UNL1       -0.0600
     23 C          10.0996  -10.7362    2.5246 C.ar    1  UNL1       -0.0405
     24 C           7.8616   -8.5807    1.0493 C.ar    1  UNL1        0.2947
     25 N           8.8381   -7.9984    1.9829 N.pl3   1  UNL1        0.0816
     26 O          10.0376   -8.0020    1.6779 O.2     1  UNL1        0.0415
     27 O           8.3827   -7.3669    2.9467 O.co2   1  UNL1       -0.5760
     28 C           6.7296   -7.7496    0.8976 C.ar    1  UNL1        0.0296
     29 H           0.5931    1.0073    0.0629 H       1  UNL1        0.0353
     30 H           0.5985   -0.5471    0.9651 H       1  UNL1        0.0353
     31 H           0.5986   -0.5463   -0.8409 H       1  UNL1        0.0353
     32 H           2.8368    2.0137    0.0610 H       1  UNL1        0.4541
     33 H           5.2753    1.5033    0.0724 H       1  UNL1        0.1392
     34 H           5.4015   -1.3161    0.0795 H       1  UNL1        0.0871
     35 H           2.2110   -2.6621   -0.8375 H       1  UNL1        0.0494
     36 H           2.2003   -2.6701    0.9387 H       1  UNL1        0.0494
     37 H           4.6303   -3.2979    0.9429 H       1  UNL1        0.0297
     38 H           4.6404   -3.2871   -0.8198 H       1  UNL1        0.0297
     39 H           2.9682   -5.1422   -0.8462 H       1  UNL1        0.0463
     40 H           2.9661   -5.1589    0.9267 H       1  UNL1        0.0463
     41 H           5.6531   -5.4651    0.0271 H       1  UNL1        0.1490
     42 H           5.0307   -9.4902   -1.4528 H       1  UNL1        0.0626
     43 H           6.8951  -11.0501   -1.0925 H       1  UNL1        0.0638
     44 H           9.0892  -11.4057   -0.4037 H       1  UNL1        0.1523
     45 H          11.6066  -10.3200   -0.5057 H       1  UNL1        0.0636
     46 H          13.5831  -10.0860    0.9619 H       1  UNL1        0.0618
     47 H          13.2700   -9.9119    3.4127 H       1  UNL1        0.0618
     48 H          11.0296  -10.2984    4.4075 H       1  UNL1        0.0618
     49 H           9.1159  -10.8612    2.9673 H       1  UNL1        0.0636
     50 H           6.6375   -6.8528    1.5043 H       1  UNL1        0.0693
@<TRIPOS>UNITY_ATOM_ATTR
3 1
charge 1
25 1
charge 1
27 1
charge -1
@<TRIPOS>BOND
     1     1     2    1
     2     2     3   ar
     3     3     4   ar
     4     4     5   ar
     5     5     6   ar
     6     2     6   ar
     7     6     7    1
     8     7     8    1
     9     8     9    1
    10     9    10    1
    11    10    11   am
    12    11    12    2
    13    11    13    1
    14    13    14   ar
    15    14    15   ar
    16    15    16   ar
    17    16    17    1
    18    17    18    1
    19    18    19   ar
    20    19    20   ar
    21    20    21   ar
    22    21    22   ar
    23    22    23   ar
    24    18    23   ar
    25    16    24   ar
    26    24    25    1
    27    25    26    2
    28    25    27    1
    29    24    28   ar
    30    13    28   ar
    31     1    29    1
    32     1    30    1
    33     1    31    1
    34     3    32    1
    35     4    33    1
    36     5    34    1
    37     7    35    1
    38     7    36    1
    39     8    37    1
    40     8    38    1
    41     9    39    1
    42     9    40    1
    43    10    41    1
    44    14    42    1
    45    15    43    1
    46    17    44    1
    47    19    45    1
    48    20    46    1
    49    21    47    1
    50    22    48    1
    51    23    49    1
    52    28    50    1
