@<TRIPOS>MOLECULE
*****
 62 65 0 0 0
SMALL
GASTEIGER

@<TRIPOS>ATOM
      1 C           0.9266   -0.0018    0.0037 C.3     1  UNL1       -0.0613
      2 C           2.4514    0.0120   -0.0281 C.3     1  UNL1       -0.0305
      3 C           2.9306    0.9554   -1.0903 C.ar    1  UNL1       -0.0475
      4 C           3.7542    0.5763   -2.1515 C.ar    1  UNL1       -0.0568
      5 C           4.1527    1.5434   -3.0788 C.ar    1  UNL1       -0.0402
      6 C           3.6484    2.8612   -2.9816 C.ar    1  UNL1        0.0337
      7 N           3.8856    3.7714   -4.0371 N.am    1  UNL1       -0.2812
      8 C           3.3657    5.0831   -4.1074 C.2     1  UNL1        0.2582
      9 O           2.6839    5.6192   -3.2387 O.2     1  UNL1       -0.2695
     10 C           3.6332    5.9352   -5.3219 C.ar    1  UNL1        0.1511
     11 C           3.3185    7.2478   -5.3012 C.ar    1  UNL1       -0.0290
     12 C           3.6108    8.0987   -6.4538 C.ar    1  UNL1        0.0185
     13 C           3.8854    9.4709   -6.3512 C.ar    1  UNL1       -0.0511
     14 C           4.0818   10.2426   -7.5034 C.ar    1  UNL1       -0.0610
     15 C           3.9745    9.6485   -8.7621 C.ar    1  UNL1       -0.0582
     16 C           3.7248    8.2699   -8.8735 C.ar    1  UNL1       -0.0185
     17 C           3.6415    7.4920   -7.7096 C.ar    1  UNL1        0.1417
     18 O           3.8418    6.0668   -7.7748 O.2     1  UNL1       -0.4019
     19 C           4.1555    5.4179   -6.5771 C.ar    1  UNL1        0.4101
     20 N           4.8809    4.3527   -6.6182 N.2     1  UNL1       -0.0816
     21 N           5.2311    3.5789   -7.7830 N.pl3   1  UNL1       -0.0162
     22 S           6.3030    2.1995   -7.6007 S.O2    1  UNL1        0.1197
     23 O           7.0533    2.4271   -6.3922 O.2     1  UNL1       -0.1457
     24 O           5.3765    1.0718   -7.6484 O.2     1  UNL1       -0.1457
     25 C           7.4874    2.0481   -9.0229 C.ar    1  UNL1        0.1581
     26 C           7.7332    0.7365   -9.5210 C.ar    1  UNL1        0.0105
     27 C           8.6769    0.5116  -10.5589 C.ar    1  UNL1        0.1222
     28 O           9.0273   -0.7841  -10.8573 O.3     1  UNL1       -0.4950
     29 C          10.1287   -0.9307  -11.7754 C.3     1  UNL1        0.0788
     30 C           9.2469    1.5923  -11.2188 C.ar    1  UNL1       -0.0164
     31 C           9.0520    2.8629  -10.7334 C.ar    1  UNL1       -0.0145
     32 C           8.2708    3.0918   -9.5964 C.ar    1  UNL1        0.1470
     33 O           8.4982    4.4034   -9.2356 O.3     1  UNL1       -0.4931
     34 C           7.5005    4.8541   -8.4036 C.3     1  UNL1        0.0789
     35 C           2.8643    3.2192   -1.9104 C.ar    1  UNL1       -0.0402
     36 C           2.5194    2.2826   -0.9732 C.ar    1  UNL1       -0.0568
     37 H           0.5653   -0.6518    0.8011 H       1  UNL1        0.0233
     38 H           0.5250   -0.3431   -0.9563 H       1  UNL1        0.0233
     39 H           0.5066    0.9946    0.1881 H       1  UNL1        0.0233
     40 H           2.8423   -0.9968   -0.1870 H       1  UNL1        0.0311
     41 H           2.8448    0.3702    0.9316 H       1  UNL1        0.0311
     42 H           4.0730   -0.4596   -2.2680 H       1  UNL1        0.0621
     43 H           4.8443    1.2294   -3.8615 H       1  UNL1        0.0636
     44 H           4.3093    3.1995   -4.7393 H       1  UNL1        0.1551
     45 H           2.7970    7.7189   -4.4655 H       1  UNL1        0.0635
     46 H           4.0197    9.9490   -5.3814 H       1  UNL1        0.0625
     47 H           4.3157   11.3062   -7.4221 H       1  UNL1        0.0618
     48 H           4.1431   10.2611   -9.6505 H       1  UNL1        0.0619
     49 H           3.6383    7.8421   -9.8681 H       1  UNL1        0.0654
     50 H           5.2608    4.0426   -5.7175 H       1  UNL1        0.4895
     51 H           5.0783    4.0654   -8.6647 H       1  UNL1        0.2460
     52 H           7.2416   -0.1364   -9.0852 H       1  UNL1        0.0675
     53 H          10.3999   -1.9870  -11.8475 H       1  UNL1        0.0660
     54 H          11.0260   -0.3885  -11.4416 H       1  UNL1        0.0660
     55 H           9.8345   -0.5961  -12.7776 H       1  UNL1        0.0660
     56 H           9.9016    1.4911  -12.0780 H       1  UNL1        0.0655
     57 H           9.5604    3.6961  -11.2185 H       1  UNL1        0.0656
     58 H           7.3457    5.9184   -8.2719 H       1  UNL1        0.0660
     59 H           7.6602    4.4071   -7.4230 H       1  UNL1        0.0660
     60 H           6.6387    4.5659   -8.9794 H       1  UNL1        0.0660
     61 H           2.4626    4.2075   -1.7598 H       1  UNL1        0.0636
     62 H           1.8819    2.6115   -0.1595 H       1  UNL1        0.0621
@<TRIPOS>UNITY_ATOM_ATTR
20 1
charge 1
@<TRIPOS>BOND
     1     1     2    1
     2     2     3    1
     3     3     4   ar
     4     4     5   ar
     5     5     6   ar
     6     6     7    1
     7     7     8   am
     8     8     9    2
     9     8    10    1
    10    10    11   ar
    11    11    12   ar
    12    12    13   ar
    13    13    14   ar
    14    14    15   ar
    15    15    16   ar
    16    16    17   ar
    17    12    17   ar
    18    17    18   ar
    19    18    19   ar
    20    10    19   ar
    21    19    20    2
    22    20    21    1
    23    21    22    1
    24    22    23    2
    25    22    24    2
    26    22    25    1
    27    25    26   ar
    28    26    27   ar
    29    27    28    1
    30    28    29    1
    31    27    30   ar
    32    30    31   ar
    33    31    32   ar
    34    25    32   ar
    35    32    33    1
    36    33    34    1
    37     6    35   ar
    38    35    36   ar
    39     3    36   ar
    40     1    37    1
    41     1    38    1
    42     1    39    1
    43     2    40    1
    44     2    41    1
    45     4    42    1
    46     5    43    1
    47     7    44    1
    48    11    45    1
    49    13    46    1
    50    14    47    1
    51    15    48    1
    52    16    49    1
    53    20    50    1
    54    21    51    1
    55    26    52    1
    56    29    53    1
    57    29    54    1
    58    29    55    1
    59    30    56    1
    60    31    57    1
    61    34    58    1
    62    34    59    1
    63    34    60    1
    64    35    61    1
    65    36    62    1
