@<TRIPOS>MOLECULE
*****
 60 63 0 0 0
SMALL
GASTEIGER

@<TRIPOS>ATOM
      1 C           0.8786   -0.0605    0.0474 C.3     1  UNL1        0.0365
      2 O           2.2928   -0.2026    0.0314 O.3     1  UNL1       -0.3814
      3 C           2.7438   -1.1122    1.0387 C.3     1  UNL1        0.0628
      4 C           4.2569   -1.3771    0.8007 C.3     1  UNL1        0.0351
      5 N           4.9136   -2.3563    1.7765 N.am    1  UNL1       -0.3118
      6 C           6.2899   -2.4296    2.1646 C.2     1  UNL1        0.2304
      7 O           7.2426   -2.2448    1.3966 O.2     1  UNL1       -0.2741
      8 C           6.6799   -2.6739    3.6856 C.3     1  UNL1        0.0886
      9 C           6.4119   -4.1068    3.6608 C.3     1  UNL1       -0.0153
     10 C           6.3058   -4.5345    5.1053 C.3     1  UNL1        0.0325
     11 S           5.6068   -6.1968    5.0003 S.3     1  UNL1       -0.0071
     12 C           6.8818   -6.7156    3.7962 C.3     1  UNL1        0.3954
     13 N           8.2412   -6.1850    4.1745 N.2     1  UNL1       -0.1660
     14 C           8.9959   -7.1141    4.4334 C.ar    1  UNL1        0.2782
     15 C          10.2956   -7.0272    5.0693 C.ar    1  UNL1        0.0162
     16 C          10.9541   -8.1824    5.0282 C.ar    1  UNL1       -0.0551
     17 C          10.4181   -9.3994    4.4237 C.ar    1  UNL1       -0.0551
     18 C           9.1852   -9.5475    3.9022 C.ar    1  UNL1        0.0162
     19 C           8.3620   -8.3708    3.9688 C.ar    1  UNL1        0.2782
     20 N           7.1577   -8.1349    3.6047 N.2     1  UNL1       -0.1660
     21 C           5.7946   -3.3475    5.8576 C.3     1  UNL1        0.0123
     22 N           5.9503   -2.2349    4.8935 N.3     1  UNL1       -0.2862
     23 C           4.6776   -1.6319    4.5995 C.3     1  UNL1        0.0248
     24 C           4.8577   -0.3051    3.8621 C.ar    1  UNL1       -0.0333
     25 C           5.8201    0.0312    2.8721 C.ar    1  UNL1       -0.0568
     26 C           5.9512    1.1286    2.0775 C.ar    1  UNL1       -0.0498
     27 C           4.9711    2.0359    2.2234 C.ar    1  UNL1        0.0548
     28 C           5.1339    3.1732    1.2896 C.3     1  UNL1        0.4174
     29 F           6.4305    3.6026    1.3025 F       1  UNL1       -0.1659
     30 F           4.8777    2.8380   -0.0038 F       1  UNL1       -0.1659
     31 F           4.3579    4.2189    1.6201 F       1  UNL1       -0.1659
     32 C           3.9520    1.8054    3.1747 C.ar    1  UNL1       -0.0498
     33 C           3.9165    0.6743    4.0203 C.ar    1  UNL1       -0.0568
     34 H           0.5751    0.5691   -0.7935 H       1  UNL1        0.0523
     35 H           0.5443    0.4040    0.9808 H       1  UNL1        0.0523
     36 H           0.4251   -1.0474   -0.0688 H       1  UNL1        0.0523
     37 H           2.1737   -2.0420    1.0119 H       1  UNL1        0.0575
     38 H           2.5475   -0.6293    2.0083 H       1  UNL1        0.0575
     39 H           4.6262   -0.3628    0.8801 H       1  UNL1        0.0484
     40 H           4.5356   -1.6260   -0.2208 H       1  UNL1        0.0484
     41 H           4.2485   -2.4972    2.5027 H       1  UNL1        0.1488
     42 H           7.7532   -2.4764    3.8688 H       1  UNL1        0.0559
     43 H           7.2302   -4.4819    3.0349 H       1  UNL1        0.0296
     44 H           5.4853   -4.3321    3.1155 H       1  UNL1        0.0296
     45 H           7.2705   -4.6775    5.5900 H       1  UNL1        0.0430
     46 H           6.6214   -6.3389    2.8020 H       1  UNL1        0.2074
     47 H           8.5456   -5.2180    4.3873 H       1  UNL1        0.4537
     48 H          10.6740   -6.1098    5.5149 H       1  UNL1        0.0685
     49 H          11.9581   -8.2200    5.4522 H       1  UNL1        0.0620
     50 H          11.1000  -10.2442    4.4184 H       1  UNL1        0.0620
     51 H           8.8213  -10.4592    3.4518 H       1  UNL1        0.0685
     52 H           6.5225   -8.7741    3.1216 H       1  UNL1        0.4537
     53 H           6.4762   -3.1821    6.7096 H       1  UNL1        0.0438
     54 H           4.7983   -3.5150    6.2730 H       1  UNL1        0.0438
     55 H           4.1084   -1.4650    5.5210 H       1  UNL1        0.0476
     56 H           4.0686   -2.4260    4.1444 H       1  UNL1        0.0476
     57 H           6.2644   -0.6073    2.1633 H       1  UNL1        0.0621
     58 H           6.5609    1.0661    1.1546 H       1  UNL1        0.0623
     59 H           3.1443    2.5180    3.2472 H       1  UNL1        0.0623
     60 H           3.1317    0.5415    4.7583 H       1  UNL1        0.0621
@<TRIPOS>UNITY_ATOM_ATTR
13 1
charge 1
20 1
charge 1
@<TRIPOS>BOND
     1     1     2    1
     2     2     3    1
     3     3     4    1
     4     4     5    1
     5     5     6   am
     6     6     7    2
     7     6     8    1
     8     8     9    1
     9     9    10    1
    10    11    12    1
    11    12    13    1
    12    13    14    2
    13    14    15   ar
    14    15    16   ar
    15    16    17   ar
    16    17    18   ar
    17    18    19   ar
    18    14    19   ar
    19    19    20    2
    20    12    20    1
    21    10    21    1
    22    21    22    1
    23     8    22    1
    24    22    23    1
    25    23    24    1
    26    24    25   ar
    27    25    26   ar
    28    26    27   ar
    29    27    28    1
    30    28    29    1
    31    28    30    1
    32    28    31    1
    33    27    32   ar
    34    32    33   ar
    35    24    33   ar
    36    10    11    1
    37     1    34    1
    38     1    35    1
    39     1    36    1
    40     3    37    1
    41     3    38    1
    42     4    39    1
    43     4    40    1
    44     5    41    1
    45     8    42    1
    46     9    43    1
    47     9    44    1
    48    10    45    1
    49    12    46    1
    50    13    47    1
    51    15    48    1
    52    16    49    1
    53    17    50    1
    54    18    51    1
    55    20    52    1
    56    21    53    1
    57    21    54    1
    58    23    55    1
    59    23    56    1
    60    25    57    1
    61    26    58    1
    62    32    59    1
    63    33    60    1
