REMARK  4 active torsions:
REMARK  status: ('A' for Active; 'I' for Inactive)
REMARK    1  A    between atoms: C_6  and  C_7 
REMARK    2  A    between atoms: C_10  and  N_11 
REMARK       I    between atoms: N_11  and  C_12 
REMARK    3  A    between atoms: C_12  and  C_14 
REMARK       I    between atoms: C_14  and  N_16 
REMARK    4  A    between atoms: N_16  and  N_17 
ROOT
ATOM      1  N   UNL d   1       1.344   2.351   0.001  0.00  0.00    -0.318 N 
ATOM      2  C   UNL d   1       2.718   2.521  -0.011  0.00  0.00     0.315 C 
ATOM      3  O   UNL d   1       3.658   1.728  -0.034  0.00  0.00    -0.262 OA
ATOM      4  H   UNL d   1       0.920   3.259   0.003  0.00  0.00     0.169 HD
ENDROOT
BRANCH   1   5
ATOM      5  C   UNL d   1       0.479   1.190   0.002  0.00  0.00     0.047 A 
ATOM      6  C   UNL d   1      -0.960   1.284   0.007  0.00  0.00    -0.027 A 
ATOM      7  C   UNL d   1      -1.731   0.074  -0.024  0.00  0.00     0.010 A 
ATOM      8  C   UNL d   1      -1.152  -1.186  -0.011  0.00  0.00     0.001 A 
ATOM      9  C   UNL d   1       0.219  -1.275   0.003  0.00  0.00     0.009 A 
ATOM     10  C   UNL d   1       1.020  -0.121   0.000  0.00  0.00    -0.035 A 
ATOM     11  C   UNL d   1       2.480  -0.400  -0.006  0.00  0.00     0.050 C 
BRANCH   6  12
ATOM     12  C   UNL d   1      -1.841   2.551   0.036  0.00  0.00     0.013 C 
ATOM     13  C   UNL d   1      -2.758   2.588   1.273  0.00  0.00     0.015 C 
ATOM     14  C   UNL d   1      -1.103   3.876   0.005  0.00  0.00     0.015 C 
ENDBRANCH   6  12
ENDBRANCH   1   5
BRANCH   2  15
ATOM     15  C   UNL d   1       3.232   3.961  -0.009  0.00  0.00     0.323 C 
ATOM     16  O   UNL d   1       2.482   4.924  -0.018  0.00  0.00    -0.261 OA
ATOM     17  N   UNL d   1       4.624   3.948  -0.014  0.00  0.00    -0.286 N 
ATOM     18  H   UNL d   1       5.053   3.014   0.030  0.00  0.00     0.184 HD
BRANCH  17  19
ATOM     19  N   UNL d   1       5.407   5.098   0.020  0.00  0.00    -0.247 NA
ATOM     20  H   UNL d   1       4.779   5.905  -0.024  0.00  0.00     0.143 HD
ATOM     21  H   UNL d   1       5.961   5.125  -0.840  0.00  0.00     0.143 HD
ENDBRANCH  17  19
ENDBRANCH   2  15
TORSDOF 4
