REMARK  9 active torsions:
REMARK  status: ('A' for Active; 'I' for Inactive)
REMARK    1  A    between atoms: O_2  and  C_3 
REMARK    2  A    between atoms: C_9  and  C_10 
REMARK    3  A    between atoms: C_10  and  C_11 
REMARK    4  A    between atoms: C_11  and  N_12 
REMARK       I    between atoms: N_12  and  C_13 
REMARK    5  A    between atoms: C_13  and  C_15 
REMARK    6  A    between atoms: C_15  and  C_16 
REMARK    7  A    between atoms: C_17  and  C_16 
REMARK    8  A    between atoms: C_20  and  C_21 
REMARK       I    between atoms: C_21  and  N_23 
REMARK    9  A    between atoms: N_23  and  C_24 
ROOT
ATOM      1  C   UNL d   1      12.453  -0.116 -10.376  0.00  0.00     0.105 C 
ENDROOT
BRANCH   1   2
ATOM      2  C   UNL d   1      12.285   0.365 -11.779  0.00  0.00     0.217 C 
ATOM      3  N   UNL d   1      12.784  -0.520 -12.712  0.00  0.00    -0.361 N 
ATOM      4  H   UNL d   1      13.217  -1.391 -12.422  0.00  0.00     0.162 HD
ATOM      5  O   UNL d   1      11.790   1.450 -12.084  0.00  0.00    -0.274 OA
BRANCH   3   6
ATOM      6  C   UNL d   1      12.722  -0.146 -14.093  0.00  0.00     0.127 C 
BRANCH   6   7
ATOM      7  C   UNL d   1      13.283  -1.198 -15.039  0.00  0.00     0.056 C 
BRANCH   7   8
ATOM      8  C   UNL d   1      13.182  -0.794 -16.477  0.00  0.00    -0.048 A 
ATOM      9  C   UNL d   1      13.597  -1.512 -17.527  0.00  0.00    -0.003 A 
ATOM     10  C   UNL d   1      13.272  -0.689 -18.705  0.00  0.00     0.039 A 
ATOM     11  C   UNL d   1      14.216  -2.789 -17.664  0.00  0.00     0.050 A 
ATOM     12  C   UNL d   1      13.607  -1.231 -20.033  0.00  0.00     0.033 A 
ATOM     13  N   UNL d   1      12.719   0.420 -18.385  0.00  0.00    -0.385 N 
ATOM     14  C   UNL d   1      14.195  -2.445 -20.081  0.00  0.00     0.039 A 
ATOM     15  C   UNL d   1      14.526  -3.233 -18.893  0.00  0.00     0.069 A 
ATOM     16  C   UNL d   1      12.586   0.515 -16.921  0.00  0.00     0.155 A 
ATOM     17  H   UNL d   1      12.420   1.123 -19.057  0.00  0.00     0.160 HD
BRANCH  15  18
ATOM     18  O   UNL d   1      15.032  -4.505 -19.044  0.00  0.00    -0.356 OA
ATOM     19  C   UNL d   1      16.178  -4.644 -19.882  0.00  0.00     0.210 C 
ENDBRANCH  15  18
ENDBRANCH   7   8
ENDBRANCH   6   7
ENDBRANCH   3   6
ENDBRANCH   1   2
BRANCH   1  20
ATOM     20  C   UNL d   1      11.902   0.853  -9.328  0.00  0.00     0.041 C 
BRANCH  20  21
ATOM     21  C   UNL d   1      12.103   0.406  -7.868  0.00  0.00     0.135 C 
ATOM     22  N   UNL d   1      11.697  -0.981  -7.622  0.00  0.00    -0.245 NA
ATOM     23  N   UNL d   1      12.847  -1.917  -7.649  0.00  0.00    -0.237 NA
ATOM     24  H   UNL d   1      10.894  -1.250  -8.194  0.00  0.00     0.142 HD
ATOM     25  C   UNL d   1      14.107  -1.186  -7.888  0.00  0.00     0.226 C 
ATOM     26  H   UNL d   1      12.724  -2.660  -8.337  0.00  0.00     0.142 HD
ATOM     27  S   UNL d   1      13.839   0.542  -7.461  0.00  0.00    -0.117 SA
BRANCH  25  28
ATOM     28  C   UNL d   1      15.328  -1.751  -7.166  0.00  0.00     0.251 C 
ATOM     29  O   UNL d   1      15.755  -1.246  -6.127  0.00  0.00    -0.270 OA
ATOM     30  N   UNL d   1      16.009  -2.764  -7.872  0.00  0.00    -0.325 N 
ATOM     31  H   UNL d   1      15.777  -2.941  -8.839  0.00  0.00     0.169 HD
BRANCH  30  32
ATOM     32  C   UNL d   1      17.280  -3.193  -7.420  0.00  0.00     0.034 C 
ATOM     33  C   UNL d   1      17.511  -3.325  -6.050  0.00  0.00     0.029 C 
ATOM     34  C   UNL d   1      18.793  -3.524  -5.557  0.00  0.00     0.002 C 
ATOM     35  C   UNL d   1      19.844  -3.717  -6.442  0.00  0.00     0.000 C 
ATOM     36  C   UNL d   1      19.603  -3.726  -7.818  0.00  0.00     0.002 C 
ATOM     37  C   UNL d   1      18.326  -3.430  -8.316  0.00  0.00     0.029 C 
ENDBRANCH  30  32
ENDBRANCH  25  28
ENDBRANCH  20  21
ENDBRANCH   1  20
TORSDOF 9
