@<TRIPOS>MOLECULE
*****
 62 66 0 0 0
SMALL
GASTEIGER

@<TRIPOS>ATOM
      1 N           2.0909   -0.1012   -0.3189 N.pl3   1  UNL1       -0.3375
      2 C           0.7399   -0.1202   -0.4975 C.ar    1  UNL1        0.2064
      3 N           0.0261    0.9446   -0.1177 N.ar    1  UNL1       -0.0319
      4 O          -1.2880    0.5101   -0.0304 O.2     1  UNL1       -0.2388
      5 N          -1.3869   -0.8724   -0.2187 N.ar    1  UNL1       -0.0272
      6 C          -0.1908   -1.2499   -0.7047 C.ar    1  UNL1        0.2407
      7 N           0.1223   -2.6692   -0.6617 N.ar    1  UNL1       -0.1830
      8 N          -0.2611   -3.8358   -1.2604 N.ar    1  UNL1       -0.0581
      9 N           0.4038   -4.9129   -0.7213 N.ar    1  UNL1       -0.1279
     10 C           1.1109   -4.4803    0.3557 C.ar    1  UNL1        0.1399
     11 C           1.9411   -5.4234    1.5052 C.3     1  UNL1        0.0155
     12 N           2.6359   -4.6748    2.9472 N.4     1  UNL1        0.2397
     13 C           1.3716   -4.1275    4.0383 C.3     1  UNL1       -0.0313
     14 C           1.1535   -2.6403    3.8447 C.3     1  UNL1       -0.0077
     15 C           2.8288   -2.0881    3.0663 C.3     1  UNL1       -0.0077
     16 C           3.5841   -3.3525    2.4710 C.3     1  UNL1       -0.0313
     17 C           0.8086   -3.0655    0.3734 C.ar    1  UNL1        0.1608
     18 C           0.9755   -2.2152    1.4373 C.2     1  UNL1        0.2838
     19 O           1.5237   -3.1589    1.9724 O.2     1  UNL1       -0.2667
     20 N           0.7379   -0.8576    2.0507 N.am    1  UNL1       -0.2016
     21 N           1.3374   -0.3423    3.3569 N.2     1  UNL1       -0.1874
     22 C           1.4548    0.9117    3.6592 C.2     1  UNL1        0.0529
     23 C           2.1755    1.4447    4.8820 C.ar    1  UNL1       -0.0020
     24 C           1.5517    2.4666    5.5956 C.ar    1  UNL1       -0.0529
     25 C           2.2783    3.2482    6.5020 C.ar    1  UNL1       -0.0577
     26 C           3.6044    2.9330    6.8045 C.ar    1  UNL1       -0.0199
     27 C           4.2301    1.8710    6.1478 C.ar    1  UNL1        0.1216
     28 O           5.5509    1.6793    6.4568 O.3     1  UNL1       -0.4874
     29 C           6.2454    0.6618    5.7216 C.3     1  UNL1        0.1146
     30 C           7.6844    0.6207    6.1583 C.ar    1  UNL1       -0.0104
     31 C           8.3392   -0.5997    6.3673 C.ar    1  UNL1       -0.0554
     32 C           9.6029   -0.6161    6.9562 C.ar    1  UNL1       -0.0614
     33 C          10.2813    0.5783    7.1896 C.ar    1  UNL1       -0.0617
     34 C           9.6658    1.7950    6.9115 C.ar    1  UNL1       -0.0614
     35 C           8.3748    1.8153    6.3944 C.ar    1  UNL1       -0.0554
     36 C           3.5085    1.1249    5.1971 C.ar    1  UNL1       -0.0113
     37 H           2.5637    0.7724   -0.0532 H       1  UNL1        0.1439
     38 H           2.7121   -0.8992   -0.2656 H       1  UNL1        0.1439
     39 H           2.8281   -5.8935    1.0355 H       1  UNL1        0.0884
     40 H           1.3353   -6.2547    1.9185 H       1  UNL1        0.0884
     41 H           3.2052   -5.3801    3.4309 H       1  UNL1        0.2037
     42 H           1.7488   -4.1542    5.0433 H       1  UNL1        0.0814
     43 H           0.4566   -4.7317    3.8449 H       1  UNL1        0.0814
     44 H           0.4502   -1.9381    4.3710 H       1  UNL1        0.0319
     45 H           0.1690   -2.7749    3.1831 H       1  UNL1        0.0319
     46 H           3.4079   -1.3560    3.6182 H       1  UNL1        0.0319
     47 H           2.8181   -1.4406    2.0901 H       1  UNL1        0.0319
     48 H           4.5887   -3.3517    2.8864 H       1  UNL1        0.0814
     49 H           3.6758   -3.3745    1.3321 H       1  UNL1        0.0814
     50 H           0.4270   -0.0701    1.5187 H       1  UNL1        0.1776
     51 H           1.0542    1.6603    2.9737 H       1  UNL1        0.0851
     52 H           0.4933    2.6576    5.4505 H       1  UNL1        0.0624
     53 H           1.8171    4.1277    6.9479 H       1  UNL1        0.0619
     54 H           4.1370    3.5237    7.5512 H       1  UNL1        0.0654
     55 H           6.2153    0.8635    4.6439 H       1  UNL1        0.0748
     56 H           5.7788   -0.3044    5.9466 H       1  UNL1        0.0748
     57 H           7.8649   -1.5419    6.1051 H       1  UNL1        0.0621
     58 H          10.0532   -1.5567    7.2615 H       1  UNL1        0.0618
     59 H          11.2923    0.5602    7.5867 H       1  UNL1        0.0618
     60 H          10.1725    2.7301    7.1313 H       1  UNL1        0.0618
     61 H           7.8903    2.7695    6.1998 H       1  UNL1        0.0621
     62 H           4.0014    0.3183    4.6790 H       1  UNL1        0.0660
@<TRIPOS>UNITY_ATOM_ATTR
12 1
charge 1
@<TRIPOS>BOND
     1     1     2    1
     2     2     3   ar
     3     3     4   ar
     4     4     5   ar
     5     5     6   ar
     6     2     6   ar
     7     6     7    1
     8     7     8   ar
     9     8     9   ar
    10     9    10   ar
    11    10    11    1
    12    11    12    1
    13    12    13    1
    14    13    14    1
    15    14    15    1
    16    15    16    1
    17    12    16    1
    18    10    17   ar
    19     7    17   ar
    20    17    18    1
    21    18    19    2
    22    18    20   am
    23    20    21    1
    24    21    22    2
    25    22    23    1
    26    23    24   ar
    27    24    25   ar
    28    25    26   ar
    29    26    27   ar
    30    27    28    1
    31    28    29    1
    32    29    30    1
    33    30    31   ar
    34    31    32   ar
    35    32    33   ar
    36    33    34   ar
    37    34    35   ar
    38    30    35   ar
    39    27    36   ar
    40    23    36   ar
    41     1    37    1
    42     1    38    1
    43    11    39    1
    44    11    40    1
    45    12    41    1
    46    13    42    1
    47    13    43    1
    48    14    44    1
    49    14    45    1
    50    15    46    1
    51    15    47    1
    52    16    48    1
    53    16    49    1
    54    20    50    1
    55    22    51    1
    56    24    52    1
    57    25    53    1
    58    26    54    1
    59    29    55    1
    60    29    56    1
    61    31    57    1
    62    32    58    1
    63    33    59    1
    64    34    60    1
    65    35    61    1
    66    36    62    1
