@<TRIPOS>MOLECULE
*****
 56 59 0 0 0
SMALL
GASTEIGER

@<TRIPOS>ATOM
      1 C           1.1623   -0.5140   -0.3871 C.3     1  UNL1        0.0790
      2 O           2.5219   -0.1769   -0.0677 O.3     1  UNL1       -0.4914
      3 C           3.0155    1.1184   -0.1077 C.ar    1  UNL1        0.1621
      4 C           4.2136    1.2305   -0.8719 C.ar    1  UNL1       -0.0077
      5 C           5.0379    2.3794   -0.8088 C.ar    1  UNL1       -0.0018
      6 C           6.4239    2.4190   -1.3985 C.2     1  UNL1        0.0529
      7 N           7.2017    3.4554   -1.2413 N.2     1  UNL1       -0.1877
      8 N           8.4935    3.4543   -1.7528 N.am    1  UNL1       -0.2063
      9 C           9.2823    4.6046   -1.5520 C.2     1  UNL1        0.2425
     10 O           8.8932    5.5775   -0.9057 O.2     1  UNL1       -0.2732
     11 C          10.7203    4.6221   -2.1881 C.3     1  UNL1        0.0844
     12 S          11.4413    6.4571   -2.0499 S.3     1  UNL1       -0.0024
     13 C          13.2022    6.4304   -2.5071 C.3     1  UNL1        0.3955
     14 N          14.1466    6.8738   -1.4244 N.2     1  UNL1       -0.1660
     15 C          15.2198    7.0567   -2.0501 C.ar    1  UNL1        0.2782
     16 C          16.1369    6.0340   -2.7620 C.ar    1  UNL1        0.0162
     17 C          17.1964    6.5461   -3.4124 C.ar    1  UNL1       -0.0551
     18 C          17.3593    7.9778   -3.4224 C.ar    1  UNL1       -0.0551
     19 C          16.2397    8.7505   -3.4195 C.ar    1  UNL1        0.0162
     20 C          14.9354    8.0017   -3.1703 C.ar    1  UNL1        0.2782
     21 N          13.8610    7.4167   -3.6554 N.2     1  UNL1       -0.1660
     22 C           4.6075    3.4777   -0.0714 C.ar    1  UNL1       -0.0494
     23 C           3.4405    3.3906    0.6818 C.ar    1  UNL1       -0.0157
     24 C           2.6595    2.2214    0.7102 C.ar    1  UNL1        0.1624
     25 O           1.6637    2.3704    1.6545 O.3     1  UNL1       -0.4837
     26 C           0.7424    1.3141    1.6146 C.3     1  UNL1        0.1148
     27 C          -0.4675    1.3503    2.4768 C.ar    1  UNL1       -0.0104
     28 C          -0.9936    2.5842    2.8112 C.ar    1  UNL1       -0.0554
     29 C          -2.0286    2.6408    3.7196 C.ar    1  UNL1       -0.0614
     30 C          -2.6307    1.4641    4.1721 C.ar    1  UNL1       -0.0617
     31 C          -2.1962    0.2180    3.7231 C.ar    1  UNL1       -0.0614
     32 C          -1.1080    0.1564    2.8667 C.ar    1  UNL1       -0.0554
     33 H           1.0899   -1.5670   -0.6663 H       1  UNL1        0.0660
     34 H           0.7242    0.1325   -1.1514 H       1  UNL1        0.0660
     35 H           0.5164   -0.5500    0.4915 H       1  UNL1        0.0660
     36 H           4.5124    0.3805   -1.4819 H       1  UNL1        0.0662
     37 H           6.7559    1.5130   -1.9329 H       1  UNL1        0.0851
     38 H           8.8062    2.6174   -2.2312 H       1  UNL1        0.1772
     39 H          10.6456    4.4021   -3.2548 H       1  UNL1        0.0476
     40 H          11.3517    3.8863   -1.6752 H       1  UNL1        0.0476
     41 H          13.5197    5.3950   -2.6942 H       1  UNL1        0.2074
     42 H          13.6384    7.7208   -1.0526 H       1  UNL1        0.4537
     43 H          15.7279    5.1289   -3.2187 H       1  UNL1        0.0685
     44 H          17.8495    5.9558   -4.0602 H       1  UNL1        0.0620
     45 H          18.3899    8.3482   -3.3254 H       1  UNL1        0.0620
     46 H          16.4382    9.7428   -2.9854 H       1  UNL1        0.0685
     47 H          13.8131    6.9931   -4.5958 H       1  UNL1        0.4537
     48 H           5.1926    4.3931   -0.0297 H       1  UNL1        0.0625
     49 H           3.1582    4.2305    1.3164 H       1  UNL1        0.0655
     50 H           1.2977    0.4305    1.9421 H       1  UNL1        0.0748
     51 H           0.3074    1.3604    0.6144 H       1  UNL1        0.0748
     52 H          -0.5625    3.4827    2.3787 H       1  UNL1        0.0621
     53 H          -2.3392    3.6103    4.0885 H       1  UNL1        0.0618
     54 H          -3.4501    1.5266    4.8790 H       1  UNL1        0.0618
     55 H          -2.6799   -0.6937    4.0657 H       1  UNL1        0.0618
     56 H          -0.7616   -0.8188    2.5216 H       1  UNL1        0.0621
@<TRIPOS>UNITY_ATOM_ATTR
14 1
charge 1
21 1
charge 1
@<TRIPOS>BOND
     1     1     2    1
     2     2     3    1
     3     3     4   ar
     4     4     5   ar
     5     5     6    1
     6     6     7    2
     7     7     8    1
     8     8     9   am
     9     9    10    2
    10     9    11    1
    11    11    12    1
    12    12    13    1
    13    13    14    1
    14    14    15    2
    15    15    16   ar
    16    16    17   ar
    17    17    18   ar
    18    18    19   ar
    19    19    20   ar
    20    15    20   ar
    21    20    21    2
    22    13    21    1
    23     5    22   ar
    24    22    23   ar
    25    23    24   ar
    26     3    24   ar
    27    24    25    1
    28    25    26    1
    29    26    27    1
    30    27    28   ar
    31    28    29   ar
    32    29    30   ar
    33    30    31   ar
    34    31    32   ar
    35    27    32   ar
    36     1    33    1
    37     1    34    1
    38     1    35    1
    39     4    36    1
    40     6    37    1
    41     8    38    1
    42    11    39    1
    43    11    40    1
    44    13    41    1
    45    14    42    1
    46    16    43    1
    47    17    44    1
    48    18    45    1
    49    19    46    1
    50    21    47    1
    51    22    48    1
    52    23    49    1
    53    26    50    1
    54    26    51    1
    55    28    52    1
    56    29    53    1
    57    30    54    1
    58    31    55    1
    59    32    56    1
