REMARK  3 active torsions:
REMARK  status: ('A' for Active; 'I' for Inactive)
REMARK    1  A    between atoms: C_5  and  C_6 
REMARK       I    between atoms: C_6  and  N_7 
REMARK    2  A    between atoms: C_10  and  N_11 
REMARK       I    between atoms: N_11  and  C_12 
REMARK    3  A    between atoms: C_12  and  C_14 
ROOT
ATOM      1  C   UNL d   1       2.452  -0.352   0.499  0.00  0.00     0.050 C 
ATOM      2  C   UNL d   1       0.988  -0.114   0.292  0.00  0.00    -0.035 C 
ATOM      3  C   UNL d   1       0.226  -1.276   0.150  0.00  0.00     0.010 C 
ATOM      4  C   UNL d   1      -1.155  -1.231   0.037  0.00  0.00     0.017 C 
ATOM      5  C   UNL d   1      -1.824  -0.009   0.049  0.00  0.00     0.034 C 
ATOM      6  C   UNL d   1      -1.066   1.183   0.106  0.00  0.00     0.047 C 
ATOM      7  C   UNL d   1       0.352   1.141   0.169  0.00  0.00     0.042 C 
ENDROOT
BRANCH   7   8
ATOM      8  N   UNL d   1       1.056   2.372   0.018  0.00  0.00    -0.322 N 
ATOM      9  C   UNL d   1       2.409   2.581  -0.209  0.00  0.00     0.258 C 
ATOM     10  O   UNL d   1       3.022   3.372   0.510  0.00  0.00    -0.267 OA
ATOM     11  H   UNL d   1       0.540   3.226   0.210  0.00  0.00     0.169 HD
BRANCH   9  12
ATOM     12  C   UNL d   1       3.159   1.851  -1.307  0.00  0.00     0.055 C 
ATOM     13  C   UNL d   1       4.564   1.721  -1.119  0.00  0.00     0.042 C 
ATOM     14  C   UNL d   1       5.303   0.801  -1.875  0.00  0.00     0.035 C 
ATOM     15 CL   UNL d   1       7.007   0.663  -1.675  0.00  0.00    -0.084 Cl
ATOM     16  C   UNL d   1       4.662  -0.064  -2.754  0.00  0.00     0.025 C 
ATOM     17  C   UNL d   1       3.291   0.060  -2.956  0.00  0.00     0.026 C 
ATOM     18  C   UNL d   1       2.554   1.080  -2.328  0.00  0.00     0.049 C 
ATOM     19 CL   UNL d   1       0.901   1.156  -2.828  0.00  0.00    -0.083 Cl
ENDBRANCH   9  12
ENDBRANCH   7   8
BRANCH   5  20
ATOM     20  C   UNL d   1      -3.322   0.040  -0.035  0.00  0.00     0.249 C 
ATOM     21  N   UNL d   1      -4.005  -1.157  -0.068  0.00  0.00    -0.366 N 
ATOM     22  H   UNL d   1      -3.594  -2.075  -0.039  0.00  0.00     0.159 HD
ATOM     23  H   UNL d   1      -5.016  -1.115  -0.093  0.00  0.00     0.159 HD
ATOM     24  O   UNL d   1      -3.929   1.091  -0.061  0.00  0.00    -0.268 OA
ENDBRANCH   5  20
TORSDOF 3
