@<TRIPOS>MOLECULE
*****
 51 54 0 0 0
SMALL
GASTEIGER

@<TRIPOS>ATOM
      1 O           1.1268   -0.0958   -0.0941 O.2     1  UNL1       -0.2513
      2 C           2.3547   -0.0673   -0.0671 C.2     1  UNL1        0.3160
      3 N           3.0382    0.5160    0.9736 N.am    1  UNL1       -0.2982
      4 C           2.3346    1.1423    2.0877 C.3     1  UNL1        0.0147
      5 C           3.2925    1.7265    3.1266 C.3     1  UNL1       -0.0191
      6 C           2.5520    2.3753    4.2966 C.3     1  UNL1        0.0296
      7 N           3.4873    2.9342    5.2928 N.ar    1  UNL1       -0.2957
      8 C           4.3693    2.2093    6.0910 C.ar    1  UNL1        0.0732
      9 C           5.0210    3.1098    6.8857 C.ar    1  UNL1        0.1870
     10 N           4.5130    4.3448    6.5628 N.ar    1  UNL1       -0.2011
     11 C           3.5842    4.2381    5.6074 C.ar    1  UNL1        0.2463
     12 N           3.1083   -0.6243   -1.0772 N.am    1  UNL1       -0.2180
     13 N           4.5131   -0.6034   -1.1885 N.am    1  UNL1       -0.2292
     14 C           5.1436   -1.2573   -2.2464 C.2     1  UNL1        0.2609
     15 O           4.5357   -1.7640   -3.1884 O.2     1  UNL1       -0.2686
     16 C           6.6464   -1.3023   -2.2095 C.ar    1  UNL1        0.0490
     17 C           7.3474   -1.0202   -3.3897 C.ar    1  UNL1       -0.0273
     18 C           8.7429   -1.0339   -3.3907 C.ar    1  UNL1        0.0458
     19 C           9.5368   -0.6916   -4.6377 C.3     1  UNL1        0.0014
     20 C          11.0383   -0.4907   -4.5690 C.3     1  UNL1       -0.0442
     21 C          10.4785   -1.7167   -5.2299 C.3     1  UNL1       -0.0442
     22 N           9.4274   -1.3370   -2.2617 N.ar    1  UNL1       -0.2513
     23 C           8.7753   -1.6455   -1.1381 C.ar    1  UNL1        0.0720
     24 C           9.5339   -1.9781   -0.0239 C.ar    1  UNL1       -0.0357
     25 C           8.9384   -2.3033    1.1938 C.ar    1  UNL1       -0.0597
     26 C           7.5571   -2.3191    1.2970 C.ar    1  UNL1       -0.0611
     27 C           6.7810   -2.0220    0.1832 C.ar    1  UNL1       -0.0518
     28 C           7.3681   -1.6480   -1.0453 C.ar    1  UNL1        0.0125
     29 H           4.0401    0.5126    0.9551 H       1  UNL1        0.1503
     30 H           1.6863    0.3885    2.5511 H       1  UNL1        0.0463
     31 H           1.6851    1.9283    1.6842 H       1  UNL1        0.0463
     32 H           3.9474    2.4701    2.6565 H       1  UNL1        0.0297
     33 H           3.9492    0.9332    3.5029 H       1  UNL1        0.0297
     34 H           1.9145    1.6498    4.8150 H       1  UNL1        0.0494
     35 H           1.9089    3.1891    3.9412 H       1  UNL1        0.0494
     36 H           4.4234    1.1390    5.9865 H       1  UNL1        0.0871
     37 H           5.7803    3.0347    7.6449 H       1  UNL1        0.1392
     38 H           4.7917    5.2247    6.9927 H       1  UNL1        0.4538
     39 H           3.0184    5.0550    5.1739 H       1  UNL1        0.1600
     40 H           2.5988   -1.0607   -1.8493 H       1  UNL1        0.1744
     41 H           5.0553   -0.1560   -0.4672 H       1  UNL1        0.1732
     42 H           6.8142   -0.7798   -4.3055 H       1  UNL1        0.0643
     43 H           9.0245   -0.0449   -5.3466 H       1  UNL1        0.0364
     44 H          11.5499   -0.6224   -3.6207 H       1  UNL1        0.0272
     45 H          11.4781    0.2836   -5.1874 H       1  UNL1        0.0272
     46 H          10.6130   -2.6632   -4.7162 H       1  UNL1        0.0272
     47 H          10.5323   -1.7960   -6.3094 H       1  UNL1        0.0272
     48 H          10.6203   -1.9932   -0.1073 H       1  UNL1        0.0639
     49 H           9.5556   -2.5670    2.0481 H       1  UNL1        0.0618
     50 H           7.0746   -2.5902    2.2304 H       1  UNL1        0.0618
     51 H           5.7053   -2.1225    0.2855 H       1  UNL1        0.0624
@<TRIPOS>UNITY_ATOM_ATTR
10 1
charge 1
@<TRIPOS>BOND
     1     1     2    2
     2     2     3   am
     3     3     4    1
     4     4     5    1
     5     5     6    1
     6     6     7    1
     7     7     8   ar
     8     8     9   ar
     9     9    10   ar
    10    10    11   ar
    11     7    11   ar
    12     2    12   am
    13    12    13    1
    14    13    14   am
    15    14    15    2
    16    14    16    1
    17    16    17   ar
    18    17    18   ar
    19    18    19    1
    20    19    20    1
    21    20    21    1
    22    19    21    1
    23    18    22   ar
    24    22    23   ar
    25    23    24   ar
    26    24    25   ar
    27    25    26   ar
    28    26    27   ar
    29    27    28   ar
    30    16    28   ar
    31    23    28   ar
    32     3    29    1
    33     4    30    1
    34     4    31    1
    35     5    32    1
    36     5    33    1
    37     6    34    1
    38     6    35    1
    39     8    36    1
    40     9    37    1
    41    10    38    1
    42    11    39    1
    43    12    40    1
    44    13    41    1
    45    17    42    1
    46    19    43    1
    47    20    44    1
    48    20    45    1
    49    21    46    1
    50    21    47    1
    51    24    48    1
    52    25    49    1
    53    26    50    1
    54    27    51    1
