@<TRIPOS>MOLECULE
*****
 43 44 0 0 0
SMALL
GASTEIGER

@<TRIPOS>ATOM
      1 C           1.0243   -0.0365   -0.0279 C.3     1  UNL1        0.0125
      2 C           2.5337   -0.1286    0.0051 C.2     1  UNL1        0.2141
      3 O           3.0759   -1.0057    0.6754 O.2     1  UNL1       -0.2758
      4 N           3.2189    0.8340   -0.7292 N.am    1  UNL1       -0.2855
      5 C           4.6461    0.8986   -0.7526 C.ar    1  UNL1        0.0370
      6 C           5.3992   -0.2821   -0.8993 C.ar    1  UNL1       -0.0281
      7 C           6.8113   -0.2994   -0.9190 C.ar    1  UNL1        0.0385
      8 C           7.6761   -1.5483   -1.0469 C.2     1  UNL1        0.2453
      9 O           8.8975   -1.5006   -1.0069 O.2     1  UNL1       -0.2702
     10 N           6.9955   -2.7152   -1.2254 N.am    1  UNL1       -0.2922
     11 C           7.5237   -4.0682   -1.4206 C.3     1  UNL1        0.1363
     12 C           8.1169   -4.1872   -2.7799 C.1     1  UNL1        0.0898
     13 N           8.5600   -4.2937   -3.8553 N.1     1  UNL1       -0.1942
     14 C           6.4619   -5.1907   -1.1950 C.ar    1  UNL1       -0.0104
     15 C           6.9011   -6.5382   -1.2599 C.ar    1  UNL1       -0.0556
     16 C           6.0110   -7.6138   -1.1140 C.ar    1  UNL1       -0.0614
     17 C           4.6614   -7.3831   -0.8899 C.ar    1  UNL1       -0.0615
     18 C           4.2028   -6.0822   -0.7988 C.ar    1  UNL1       -0.0585
     19 C           5.0755   -4.9924   -0.9446 C.ar    1  UNL1       -0.0445
     20 C           4.4061   -3.6625   -0.8307 C.3     1  UNL1       -0.0394
     21 C           7.4659    0.9201   -0.7884 C.ar    1  UNL1       -0.0493
     22 C           6.7368    2.1086   -0.6492 C.ar    1  UNL1       -0.0564
     23 C           5.3267    2.1171   -0.6415 C.ar    1  UNL1       -0.0292
     24 C           4.6091    3.4163   -0.4134 C.3     1  UNL1       -0.0380
     25 H           0.6161   -0.8431    0.5956 H       1  UNL1        0.0323
     26 H           0.6459   -0.1790   -1.0425 H       1  UNL1        0.0323
     27 H           0.6694    0.9110    0.3852 H       1  UNL1        0.0323
     28 H           2.7048    1.6450   -1.0533 H       1  UNL1        0.1548
     29 H           4.8214   -1.1817   -1.0196 H       1  UNL1        0.0644
     30 H           6.0717   -2.5713   -1.5453 H       1  UNL1        0.1506
     31 H           8.3111   -4.2047   -0.6684 H       1  UNL1        0.0709
     32 H           7.9491   -6.7790   -1.4437 H       1  UNL1        0.0621
     33 H           6.3682   -8.6386   -1.1813 H       1  UNL1        0.0618
     34 H           3.9584   -8.2036   -0.7847 H       1  UNL1        0.0618
     35 H           3.1452   -5.9002   -0.6137 H       1  UNL1        0.0620
     36 H           3.3433   -3.6930   -0.5904 H       1  UNL1        0.0278
     37 H           4.4526   -3.1790   -1.8131 H       1  UNL1        0.0278
     38 H           4.8838   -3.1072   -0.0168 H       1  UNL1        0.0278
     39 H           8.5534    0.9508   -0.7860 H       1  UNL1        0.0625
     40 H           7.2942    3.0354   -0.5240 H       1  UNL1        0.0621
     41 H           5.3118    4.2488   -0.2964 H       1  UNL1        0.0278
     42 H           4.0115    3.3625    0.5030 H       1  UNL1        0.0278
     43 H           3.9602    3.6435   -1.2635 H       1  UNL1        0.0278
@<TRIPOS>BOND
     1     1     2    1
     2     2     3    2
     3     2     4   am
     4     4     5    1
     5     5     6   ar
     6     6     7   ar
     7     7     8    1
     8     8     9    2
     9     8    10   am
    10    10    11    1
    11    11    12    1
    12    12    13    3
    13    11    14    1
    14    14    15   ar
    15    15    16   ar
    16    16    17   ar
    17    17    18   ar
    18    18    19   ar
    19    14    19   ar
    20    19    20    1
    21     7    21   ar
    22    21    22   ar
    23    22    23   ar
    24     5    23   ar
    25    23    24    1
    26     1    25    1
    27     1    26    1
    28     1    27    1
    29     4    28    1
    30     6    29    1
    31    10    30    1
    32    11    31    1
    33    15    32    1
    34    16    33    1
    35    17    34    1
    36    18    35    1
    37    20    36    1
    38    20    37    1
    39    20    38    1
    40    21    39    1
    41    22    40    1
    42    24    41    1
    43    24    42    1
    44    24    43    1
