REMARK  10 active torsions:
REMARK  status: ('A' for Active; 'I' for Inactive)
REMARK    1  A    between atoms: C_6  and  N_7 
REMARK       I    between atoms: N_7  and  C_8 
REMARK    2  A    between atoms: N_7  and  C_19 
REMARK    3  A    between atoms: C_8  and  C_10 
REMARK    4  A    between atoms: C_13  and  C_14 
REMARK       I    between atoms: C_14  and  N_15 
REMARK    5  A    between atoms: C_17  and  N_18 
REMARK    6  A    between atoms: C_19  and  C_20 
REMARK    7  A    between atoms: C_19  and  C_28 
REMARK       I    between atoms: C_20  and  N_22 
REMARK    8  A    between atoms: N_22  and  C_23 
REMARK    9  A    between atoms: C_23  and  C_24 
REMARK   10  A    between atoms: C_24  and  C_25 
ROOT
ATOM      1  N   UNL d   1      -0.327  -2.854   0.135  0.00  0.00    -0.295 N 
ATOM      2  C   UNL d   1       1.088  -3.639   0.350  0.00  0.00     0.269 C 
ATOM      3  O   UNL d   1       1.270  -4.816   0.414  0.00  0.00    -0.266 OA
ENDROOT
BRANCH   1   4
ATOM      4  C   UNL d   1      -0.530  -1.310   0.096  0.00  0.00     0.045 C 
ATOM      5  C   UNL d   1      -1.731  -0.657   0.425  0.00  0.00     0.030 C 
ATOM      6  C   UNL d   1      -1.910   0.750   0.244  0.00  0.00     0.003 C 
ATOM      7  C   UNL d   1      -0.831   1.601   0.042  0.00  0.00     0.007 C 
ATOM      8  C   UNL d   1       0.392   1.030  -0.164  0.00  0.00    -0.054 C 
ATOM      9  C   UNL d   1       1.693   1.807  -0.127  0.00  0.00     0.049 C 
ATOM     10  C   UNL d   1       0.451  -0.377  -0.295  0.00  0.00    -0.029 C 
ATOM     11  C   UNL d   1       1.751  -0.812  -0.749  0.00  0.00     0.051 C 
ENDBRANCH   1   4
BRANCH   1  12
ATOM     12  C   UNL d   1      -1.773  -3.636  -0.110  0.00  0.00     0.218 C 
BRANCH  12  13
ATOM     13  C   UNL d   1      -2.623  -3.273  -1.460  0.00  0.00     0.245 C 
ATOM     14  O   UNL d   1      -2.984  -4.145  -2.257  0.00  0.00    -0.271 OA
ATOM     15  N   UNL d   1      -3.096  -1.992  -1.657  0.00  0.00    -0.359 N 
ATOM     16  H   UNL d   1      -2.691  -1.205  -1.216  0.00  0.00     0.162 HD
BRANCH  15  17
ATOM     17  C   UNL d   1      -3.848  -1.568  -2.809  0.00  0.00     0.123 C 
BRANCH  17  18
ATOM     18  C   UNL d   1      -4.125  -0.054  -2.760  0.00  0.00     0.023 C 
BRANCH  18  19
ATOM     19  C   UNL d   1      -4.932   0.392  -3.983  0.00  0.00    -0.021 C 
ATOM     20  C   UNL d   1      -6.268  -0.347  -4.033  0.00  0.00     0.009 C 
ATOM     21  C   UNL d   1      -5.181   1.899  -3.964  0.00  0.00     0.009 C 
ENDBRANCH  18  19
ENDBRANCH  17  18
ENDBRANCH  15  17
ENDBRANCH  12  13
BRANCH  12  22
ATOM     22  C   UNL d   1      -1.758  -5.178  -0.018  0.00  0.00    -0.026 C 
ATOM     23  C   UNL d   1      -0.605  -5.794  -0.425  0.00  0.00     0.013 C 
ATOM     24  C   UNL d   1      -0.215  -7.088  -0.138  0.00  0.00     0.043 C 
ATOM     25  C   UNL d   1      -1.232  -7.963   0.047  0.00  0.00     0.116 C 
ATOM     26  F   UNL d   1      -0.963  -9.273   0.005  0.00  0.00    -0.206 F 
ATOM     27  C   UNL d   1      -2.542  -7.477   0.082  0.00  0.00     0.043 C 
ATOM     28  C   UNL d   1      -2.810  -6.079   0.115  0.00  0.00     0.013 C 
ENDBRANCH  12  22
ENDBRANCH   1  12
BRANCH   2  29
ATOM     29  C   UNL d   1       2.387  -3.013   0.575  0.00  0.00     0.115 C 
ATOM     30  S   UNL d   1       3.723  -3.289  -0.512  0.00  0.00     0.019 SA
ATOM     31  N   UNL d   1       4.621  -1.975   0.028  0.00  0.00    -0.203 NA
ATOM     32  C   UNL d   1       4.013  -1.470   1.121  0.00  0.00     0.155 C 
ATOM     33  C   UNL d   1       2.757  -2.107   1.513  0.00  0.00     0.065 C 
BRANCH  32  34
ATOM     34  C   UNL d   1       4.371  -0.147   1.655  0.00  0.00     0.270 C 
ATOM     35  N   UNL d   1       5.492   0.458   1.177  0.00  0.00    -0.365 N 
ATOM     36  H   UNL d   1       6.100   0.004   0.510  0.00  0.00     0.159 HD
ATOM     37  H   UNL d   1       5.767   1.310   1.643  0.00  0.00     0.159 HD
ATOM     38  O   UNL d   1       3.653   0.463   2.447  0.00  0.00    -0.266 OA
ENDBRANCH  32  34
BRANCH  33  39
ATOM     39  N   UNL d   1       1.811  -1.591   2.352  0.00  0.00    -0.299 NA
ATOM     40  H   UNL d   1       1.902  -0.585   2.521  0.00  0.00     0.124 HD
ATOM     41  H   UNL d   1       0.833  -1.758   2.100  0.00  0.00     0.124 HD
ENDBRANCH  33  39
ENDBRANCH   2  29
TORSDOF 10
