REMARK  7 active torsions:
REMARK  status: ('A' for Active; 'I' for Inactive)
REMARK    1  A    between atoms: C_2  and  C_3 
REMARK       I    between atoms: C_3  and  N_5 
REMARK    2  A    between atoms: N_5  and  C_6 
REMARK    3  A    between atoms: C_9  and  N_10 
REMARK    4  A    between atoms: N_10  and  C_11 
REMARK    5  A    between atoms: C_11  and  C_13 
REMARK       I    between atoms: C_13  and  N_15 
REMARK    6  A    between atoms: N_15  and  C_16 
REMARK    7  A    between atoms: C_20  and  S_21 
ROOT
ATOM      1  N   UNL d   1       6.370  -0.088   6.940  0.00  0.00    -0.377 N 
ATOM      2  H   UNL d   1       7.097   0.563   7.236  0.00  0.00     0.160 HD
ENDROOT
BRANCH   1   3
ATOM      3  C   UNL d   1       5.870  -0.027   5.651  0.00  0.00     0.029 A 
ATOM      4  C   UNL d   1       6.468   0.756   4.658  0.00  0.00     0.031 A 
ATOM      5  C   UNL d   1       5.998   0.732   3.321  0.00  0.00     0.032 A 
ATOM      6  C   UNL d   1       4.915  -0.082   2.956  0.00  0.00     0.040 A 
ATOM      7  C   UNL d   1       4.339  -0.907   3.929  0.00  0.00    -0.033 A 
ATOM      8  C   UNL d   1       4.791  -0.815   5.251  0.00  0.00     0.038 A 
ATOM      9  C   UNL d   1       3.312  -1.966   3.632  0.00  0.00     0.050 C 
BRANCH   6  10
ATOM     10  N   UNL d   1       4.416  -0.078   1.625  0.00  0.00    -0.327 N 
ATOM     11  C   UNL d   1       3.057   0.085   1.387  0.00  0.00     0.221 C 
ATOM     12  O   UNL d   1       2.234   0.371   2.265  0.00  0.00    -0.273 OA
ATOM     13  H   UNL d   1       5.057   0.161   0.880  0.00  0.00     0.169 HD
BRANCH  11  14
ATOM     14  C   UNL d   1       2.607  -0.045  -0.055  0.00  0.00     0.098 C 
ATOM     15  C   UNL d   1       1.078  -0.068  -0.114  0.00  0.00     0.014 C 
ENDBRANCH  11  14
ENDBRANCH   6  10
ENDBRANCH   1   3
BRANCH   1  16
ATOM     16  C   UNL d   1       5.831  -0.957   8.015  0.00  0.00     0.170 C 
ATOM     17  C   UNL d   1       6.054  -2.431   7.664  0.00  0.00     0.042 C 
BRANCH  16  18
ATOM     18  C   UNL d   1       6.556  -0.646   9.355  0.00  0.00     0.244 C 
ATOM     19  O   UNL d   1       7.428   0.227   9.401  0.00  0.00    -0.271 OA
ATOM     20  N   UNL d   1       6.176  -1.424  10.454  0.00  0.00    -0.325 N 
ATOM     21  H   UNL d   1       5.580  -2.232  10.322  0.00  0.00     0.169 HD
BRANCH  20  22
ATOM     22  C   UNL d   1       6.712  -1.237  11.750  0.00  0.00     0.036 A 
ATOM     23  C   UNL d   1       6.938  -2.324  12.597  0.00  0.00     0.029 A 
ATOM     24  C   UNL d   1       7.404  -2.104  13.898  0.00  0.00     0.004 A 
ATOM     25  C   UNL d   1       7.658  -0.802  14.345  0.00  0.00     0.018 A 
ATOM     26  C   UNL d   1       7.418   0.296  13.513  0.00  0.00     0.002 A 
ATOM     27  C   UNL d   1       6.955   0.057  12.219  0.00  0.00     0.048 A 
BRANCH  26  28
ATOM     28  S   UNL d   1       7.671   1.938  14.179  0.00  0.00    -0.134 SA
ATOM     29  C   UNL d   1       7.138   3.026  12.819  0.00  0.00     0.095 C 
ENDBRANCH  26  28
ENDBRANCH  20  22
ENDBRANCH  16  18
ENDBRANCH   1  16
TORSDOF 7
