@<TRIPOS>MOLECULE
*****
 43 45 0 0 0
SMALL
GASTEIGER

@<TRIPOS>ATOM
      1 C           2.4592   -1.7431    0.0400 C.3     1  UNL1       -0.0354
      2 C           1.6731   -0.4890    0.0041 C.ar    1  UNL1        0.0077
      3 C           2.0790    0.8495    0.0074 C.ar    1  UNL1        0.1948
      4 C           3.4038    1.5253    0.0310 C.2     1  UNL1        0.2958
      5 O           3.5452    2.7550    0.0434 O.2     1  UNL1       -0.2653
      6 N           4.5337    0.7027    0.0409 N.am    1  UNL1       -0.2266
      7 N           5.8757    1.1516    0.0739 N.am    1  UNL1       -0.2179
      8 C           6.8688    0.1689    0.0708 C.2     1  UNL1        0.3162
      9 O           6.6132   -1.0328    0.0612 O.2     1  UNL1       -0.2513
     10 N           8.1394    0.6708    0.0669 N.am    1  UNL1       -0.2941
     11 C           9.3589   -0.1504    0.0798 C.3     1  UNL1        0.0385
     12 C          10.6596    0.6452    0.1253 C.ar    1  UNL1       -0.0239
     13 C          11.9057    0.0036    0.2792 C.ar    1  UNL1       -0.0567
     14 C          13.0869    0.7459    0.4680 C.ar    1  UNL1       -0.0550
     15 C          13.0607    2.1416    0.4375 C.ar    1  UNL1        0.0156
     16 C          11.8397    2.7836    0.2432 C.ar    1  UNL1        0.2735
     17 N          11.7404    4.2473    0.2802 N.pl3   1  UNL1        0.0796
     18 O          12.7817    4.8944    0.4461 O.2     1  UNL1        0.0414
     19 O          10.6107    4.7478    0.1617 O.co2   1  UNL1       -0.5760
     20 C          10.6642    2.0446    0.0705 C.ar    1  UNL1        0.0203
     21 O           0.9238    1.6366    0.0016 O.2     1  UNL1       -0.4499
     22 C          -0.1778    0.8144   -0.0008 C.ar    1  UNL1        0.1362
     23 C          -1.5338    1.1796    0.0184 C.ar    1  UNL1       -0.0187
     24 C          -2.4859    0.1399    0.0232 C.ar    1  UNL1       -0.0582
     25 C          -2.0929   -1.1971   -0.0030 C.ar    1  UNL1       -0.0610
     26 C          -0.7349   -1.5301   -0.0265 C.ar    1  UNL1       -0.0507
     27 C           0.2383   -0.5055   -0.0160 C.ar    1  UNL1        0.0238
     28 H           3.5285   -1.6250    0.0715 H       1  UNL1        0.0279
     29 H           2.2521   -2.3404   -0.8510 H       1  UNL1        0.0279
     30 H           2.2067   -2.3090    0.9403 H       1  UNL1        0.0279
     31 H           4.4940   -0.2989    0.0019 H       1  UNL1        0.1733
     32 H           6.0317    2.1545    0.0698 H       1  UNL1        0.1744
     33 H           8.1969    1.6639    0.1873 H       1  UNL1        0.1506
     34 H           9.3498   -0.7968   -0.8054 H       1  UNL1        0.0512
     35 H           9.3160   -0.7946    0.9682 H       1  UNL1        0.0512
     36 H          11.9791   -1.0846    0.2673 H       1  UNL1        0.0621
     37 H          14.0294    0.2352    0.6645 H       1  UNL1        0.0620
     38 H          13.9815    2.7059    0.5669 H       1  UNL1        0.0685
     39 H           9.7483    2.5949   -0.0959 H       1  UNL1        0.0688
     40 H          -1.8511    2.2163    0.0395 H       1  UNL1        0.0654
     41 H          -3.5508    0.3725    0.0501 H       1  UNL1        0.0619
     42 H          -2.8401   -1.9899    0.0009 H       1  UNL1        0.0618
     43 H          -0.4355   -2.5742   -0.0431 H       1  UNL1        0.0625
@<TRIPOS>UNITY_ATOM_ATTR
17 1
charge 1
19 1
charge -1
@<TRIPOS>BOND
     1     1     2    1
     2     2     3   ar
     3     3     4    1
     4     4     5    2
     5     4     6   am
     6     6     7    1
     7     7     8   am
     8     8     9    2
     9     8    10   am
    10    10    11    1
    11    11    12    1
    12    12    13   ar
    13    13    14   ar
    14    14    15   ar
    15    15    16   ar
    16    16    17    1
    17    17    18    2
    18    17    19    1
    19    16    20   ar
    20    12    20   ar
    21     3    21   ar
    22    21    22   ar
    23    22    23   ar
    24    23    24   ar
    25    24    25   ar
    26    25    26   ar
    27    26    27   ar
    28     2    27   ar
    29    22    27   ar
    30     1    28    1
    31     1    29    1
    32     1    30    1
    33     6    31    1
    34     7    32    1
    35    10    33    1
    36    11    34    1
    37    11    35    1
    38    13    36    1
    39    14    37    1
    40    15    38    1
    41    20    39    1
    42    23    40    1
    43    24    41    1
    44    25    42    1
    45    26    43    1
