@<TRIPOS>MOLECULE
*****
 57 60 0 0 0
SMALL
GASTEIGER

@<TRIPOS>ATOM
      1 C           1.2696    4.9471    3.3692 C.3     1  UNL1       -0.0653
      2 C           1.2843    6.3562    2.8107 C.3     1  UNL1       -0.0559
      3 C           0.9787    6.3490    1.3212 C.3     1  UNL1       -0.0533
      4 C           0.9783    7.7777    0.7769 C.3     1  UNL1       -0.0515
      5 C           0.6782    7.7620   -0.7025 C.3     1  UNL1       -0.0348
      6 C           0.7105    9.0901   -1.3922 C.3     1  UNL1        0.0271
      7 N           0.5174    8.9281   -2.8223 N.ar    1  UNL1       -0.3021
      8 C           0.8711    7.8906   -3.7121 C.ar    1  UNL1        0.1921
      9 S           1.8029    6.2989   -3.7138 S.3     1  UNL1       -0.0787
     10 C           2.6005    5.3985   -2.2341 C.3     1  UNL1        0.0772
     11 C           3.1726    3.6712   -2.5088 C.3     1  UNL1        0.2866
     12 N           4.2838    2.1285   -2.0698 N.2     1  UNL1       -0.2201
     13 C           4.4156    1.5714   -0.8744 C.ar    1  UNL1        0.2727
     14 C           5.6221    1.1205    0.0146 C.ar    1  UNL1        0.0160
     15 C           6.0809    2.0775    0.8520 C.ar    1  UNL1       -0.0551
     16 C           5.5111    3.3906    0.7698 C.ar    1  UNL1       -0.0551
     17 C           4.3282    3.6029    0.1595 C.ar    1  UNL1        0.0159
     18 C           3.2906    2.2727   -0.2454 C.ar    1  UNL1        0.2734
     19 N           2.1089    2.0922   -0.9283 N.am    1  UNL1       -0.1377
     20 C           1.9205    3.0677   -2.1862 C.2     1  UNL1        0.4508
     21 O           0.7923    3.1696   -2.7470 O.2     1  UNL1       -0.2116
     22 N           0.3570    8.2451   -4.8851 N.ar    1  UNL1       -0.1222
     23 N          -0.3112    9.4494   -4.7874 N.ar    1  UNL1       -0.1283
     24 C          -0.2068    9.8986   -3.5549 C.ar    1  UNL1        0.1649
     25 C          -0.8330   11.1556   -3.0373 C.ar    1  UNL1        0.0194
     26 C          -0.0932   12.1610   -2.3877 C.ar    1  UNL1       -0.0497
     27 C          -0.7319   13.2395   -1.7436 C.ar    1  UNL1       -0.0427
     28 C          -2.1032   13.4211   -1.8848 C.ar    1  UNL1        0.0410
     29 CL         -2.8937   14.7077   -1.0586 Cl      1  UNL1       -0.0835
     30 C          -2.8305   12.5433   -2.6801 C.ar    1  UNL1       -0.0427
     31 C          -2.2137   11.3838   -3.1903 C.ar    1  UNL1       -0.0497
     32 H           1.4854    4.9649    4.4407 H       1  UNL1        0.0230
     33 H           2.0228    4.3253    2.8746 H       1  UNL1        0.0230
     34 H           0.2893    4.4833    3.2214 H       1  UNL1        0.0230
     35 H           2.2675    6.8089    2.9839 H       1  UNL1        0.0263
     36 H           0.5418    6.9677    3.3351 H       1  UNL1        0.0263
     37 H           0.0045    5.8774    1.1390 H       1  UNL1        0.0265
     38 H           1.7296    5.7390    0.8025 H       1  UNL1        0.0265
     39 H           1.9683    8.2220    0.9341 H       1  UNL1        0.0266
     40 H           0.2427    8.3862    1.3094 H       1  UNL1        0.0266
     41 H          -0.2528    7.2250   -0.9242 H       1  UNL1        0.0282
     42 H           1.5098    7.2530   -1.1525 H       1  UNL1        0.0282
     43 H           1.6759    9.5879   -1.2613 H       1  UNL1        0.0493
     44 H          -0.0705    9.7347   -0.9689 H       1  UNL1        0.0493
     45 H           1.7647    5.3573   -1.4940 H       1  UNL1        0.0453
     46 H           3.3356    6.0866   -1.7871 H       1  UNL1        0.0453
     47 H           3.2763    3.9711   -1.4774 H       1  UNL1        0.1228
     48 H           3.8635    1.2642   -2.5299 H       1  UNL1        0.4468
     49 H           6.1274    0.1396    0.0697 H       1  UNL1        0.0685
     50 H           6.9670    1.9875    1.5003 H       1  UNL1        0.0620
     51 H           6.1643    4.2488    0.9631 H       1  UNL1        0.0620
     52 H           4.6479    4.3920   -0.6041 H       1  UNL1        0.0685
     53 H           1.8493    1.2460   -1.5097 H       1  UNL1        0.4475
     54 H           0.9925   12.1329   -2.3783 H       1  UNL1        0.0625
     55 H          -0.1576   13.9447   -1.1449 H       1  UNL1        0.0632
     56 H          -3.8770   12.7500   -2.8983 H       1  UNL1        0.0632
     57 H          -2.8343   10.6570   -3.7109 H       1  UNL1        0.0625
@<TRIPOS>UNITY_ATOM_ATTR
12 1
charge 1
19 1
charge 1
@<TRIPOS>BOND
     1     1     2    1
     2     2     3    1
     3     3     4    1
     4     4     5    1
     5     5     6    1
     6     6     7    1
     7     7     8   ar
     8     8     9    1
     9     9    10    1
    10    11    12    1
    11    12    13    2
    12    13    14   ar
    13    14    15   ar
    14    15    16   ar
    15    16    17   ar
    16    17    18   ar
    17    13    18   ar
    18    18    19    2
    19    19    20   am
    20    11    20    1
    21    20    21    2
    22     8    22   ar
    23    22    23   ar
    24    23    24   ar
    25     7    24   ar
    26    24    25    1
    27    25    26   ar
    28    26    27   ar
    29    27    28   ar
    30    28    29    1
    31    28    30   ar
    32    30    31   ar
    33    25    31   ar
    34    11    10    1
    35     1    32    1
    36     1    33    1
    37     1    34    1
    38     2    35    1
    39     2    36    1
    40     3    37    1
    41     3    38    1
    42     4    39    1
    43     4    40    1
    44     5    41    1
    45     5    42    1
    46     6    43    1
    47     6    44    1
    48    10    45    1
    49    10    46    1
    50    11    47    1
    51    12    48    1
    52    14    49    1
    53    15    50    1
    54    16    51    1
    55    17    52    1
    56    19    53    1
    57    26    54    1
    58    27    55    1
    59    30    56    1
    60    31    57    1
