@<TRIPOS>MOLECULE
*****
 52 53 0 0 0
SMALL
GASTEIGER

@<TRIPOS>ATOM
      1 C           0.9587    0.0665    0.0398 C.3     1  UNL1       -0.0653
      2 C           2.4819    0.0669    0.0406 C.3     1  UNL1       -0.0555
      3 C           3.0205    0.9383    1.1688 C.3     1  UNL1       -0.0450
      4 C           4.5571    0.9891    1.2224 C.3     1  UNL1        0.0243
      5 C           4.9899    1.8918    2.3735 C.2     1  UNL1        0.2172
      6 O           4.1500    2.4319    3.0936 O.2     1  UNL1       -0.2755
      7 N           6.3595    2.0754    2.5240 N.am    1  UNL1       -0.2855
      8 C           6.9229    2.7559    3.6381 C.ar    1  UNL1        0.0334
      9 C           8.1221    3.4647    3.5354 C.ar    1  UNL1       -0.0398
     10 C           8.7145    4.0361    4.6906 C.ar    1  UNL1       -0.0478
     11 C           8.1011    3.9450    5.9593 C.ar    1  UNL1        0.0383
     12 C           8.7100    4.6363    7.1630 C.2     1  UNL1        0.2601
     13 O           9.7646    5.2715    7.0429 O.2     1  UNL1       -0.2687
     14 N           8.0443    4.5553    8.3840 N.am    1  UNL1       -0.2303
     15 N           8.5519    5.2204    9.5430 N.am    1  UNL1       -0.2313
     16 C           7.8502    5.0885   10.7418 C.2     1  UNL1        0.2667
     17 O           6.8041    4.4351   10.7889 O.2     1  UNL1       -0.2705
     18 C           8.4552    5.8118   11.9777 C.3     1  UNL1        0.1666
     19 O           7.7347    5.4895   13.1756 O.3     1  UNL1       -0.4827
     20 C           7.9655    6.1998   14.3245 C.ar    1  UNL1        0.1216
     21 C           7.6683    5.5285   15.5223 C.ar    1  UNL1       -0.0135
     22 C           7.7219    6.1870   16.7607 C.ar    1  UNL1        0.0190
     23 C           8.1456    7.5177   16.8092 C.ar    1  UNL1        0.2734
     24 N           8.3206    8.1884   18.1070 N.pl3   1  UNL1        0.0796
     25 O           8.0625    7.5421   19.1323 O.2     1  UNL1        0.0414
     26 O           8.7418    9.3546   18.1001 O.co2   1  UNL1       -0.5760
     27 C           8.4505    8.1986   15.6234 C.ar    1  UNL1        0.0190
     28 C           8.3560    7.5377   14.3860 C.ar    1  UNL1       -0.0135
     29 C           6.9055    3.2296    6.0407 C.ar    1  UNL1       -0.0478
     30 C           6.3255    2.6606    4.8971 C.ar    1  UNL1       -0.0398
     31 H           0.5772   -0.5596   -0.7722 H       1  UNL1        0.0230
     32 H           0.5658    1.0795   -0.0982 H       1  UNL1        0.0230
     33 H           0.5655   -0.3242    0.9845 H       1  UNL1        0.0230
     34 H           2.8433    0.4401   -0.9237 H       1  UNL1        0.0263
     35 H           2.8436   -0.9604    0.1566 H       1  UNL1        0.0263
     36 H           2.6328    0.5656    2.1268 H       1  UNL1        0.0270
     37 H           2.6280    1.9576    1.0527 H       1  UNL1        0.0270
     38 H           4.9511    1.3811    0.2790 H       1  UNL1        0.0358
     39 H           4.9555   -0.0198    1.3796 H       1  UNL1        0.0358
     40 H           6.9874    1.7625    1.7933 H       1  UNL1        0.1548
     41 H           8.5818    3.6431    2.5642 H       1  UNL1        0.0636
     42 H           9.6663    4.5578    4.5861 H       1  UNL1        0.0626
     43 H           7.1632    4.0667    8.5308 H       1  UNL1        0.1731
     44 H           9.4123    5.7503    9.4176 H       1  UNL1        0.1729
     45 H           8.4368    6.8847   11.7643 H       1  UNL1        0.0795
     46 H           9.4871    5.4703   12.1095 H       1  UNL1        0.0795
     47 H           7.3915    4.4755   15.4972 H       1  UNL1        0.0656
     48 H           7.4275    5.6552   17.6642 H       1  UNL1        0.0686
     49 H           8.7467    9.2462   15.6420 H       1  UNL1        0.0686
     50 H           8.5671    8.1109   13.4909 H       1  UNL1        0.0656
     51 H           6.3850    3.0706    6.9765 H       1  UNL1        0.0626
     52 H           5.4018    2.1016    5.0251 H       1  UNL1        0.0636
@<TRIPOS>UNITY_ATOM_ATTR
24 1
charge 1
26 1
charge -1
@<TRIPOS>BOND
     1     1     2    1
     2     2     3    1
     3     3     4    1
     4     4     5    1
     5     5     6    2
     6     5     7   am
     7     7     8    1
     8     8     9   ar
     9     9    10   ar
    10    10    11   ar
    11    11    12    1
    12    12    13    2
    13    12    14   am
    14    14    15    1
    15    15    16   am
    16    16    17    2
    17    16    18    1
    18    18    19    1
    19    19    20    1
    20    20    21   ar
    21    21    22   ar
    22    22    23   ar
    23    23    24    1
    24    24    25    2
    25    24    26    1
    26    23    27   ar
    27    27    28   ar
    28    20    28   ar
    29    11    29   ar
    30    29    30   ar
    31     8    30   ar
    32     1    31    1
    33     1    32    1
    34     1    33    1
    35     2    34    1
    36     2    35    1
    37     3    36    1
    38     3    37    1
    39     4    38    1
    40     4    39    1
    41     7    40    1
    42     9    41    1
    43    10    42    1
    44    14    43    1
    45    15    44    1
    46    18    45    1
    47    18    46    1
    48    21    47    1
    49    22    48    1
    50    27    49    1
    51    28    50    1
    52    29    51    1
    53    30    52    1
