REMARK  7 active torsions:
REMARK  status: ('A' for Active; 'I' for Inactive)
REMARK       I    between atoms: C_2  and  N_4 
REMARK    1  A    between atoms: C_5  and  N_4 
REMARK    2  A    between atoms: C_6  and  O_7 
REMARK    3  A    between atoms: O_7  and  C_8 
REMARK    4  A    between atoms: C_28  and  C_29 
REMARK    5  A    between atoms: C_29  and  O_30 
REMARK    6  A    between atoms: C_31  and  O_32 
REMARK    7  A    between atoms: C_33  and  O_34 
ROOT
ATOM      1  C   UNL d   1       5.370   0.069   1.374  0.00  0.00     0.072 A 
ATOM      2  C   UNL d   1       6.761  -1.103   1.411  0.00  0.00     0.037 A 
ATOM      3  C   UNL d   1       6.355  -2.826   1.240  0.00  0.00     0.011 A 
ATOM      4  C   UNL d   1       4.686  -3.336   0.919  0.00  0.00    -0.047 A 
ATOM      5  C   UNL d   1       3.415  -2.200   0.819  0.00  0.00    -0.049 A 
ATOM      6  C   UNL d   1       3.662  -0.498   0.996  0.00  0.00     0.044 A 
ATOM      7  C   UNL d   1       2.030  -2.641   0.757  0.00  0.00     0.039 C 
ATOM      8  C   UNL d   1       1.879  -4.130   0.812  0.00  0.00     0.010 C 
ATOM      9  C   UNL d   1       2.797  -4.986  -0.018  0.00  0.00    -0.000 C 
ATOM     10  C   UNL d   1       2.079  -6.615  -0.020  0.00  0.00     0.006 C 
ATOM     11  C   UNL d   1       0.944  -7.795   0.966  0.00  0.00     0.013 C 
ATOM     12  C   UNL d   1       0.761  -7.216   2.287  0.00  0.00     0.079 C 
ATOM     13  C   UNL d   1       2.182  -6.819   2.225  0.00  0.00     0.135 C 
ATOM     14  O   UNL d   1       2.591  -6.138   3.158  0.00  0.00    -0.297 OA
ATOM     15  C   UNL d   1       3.038  -7.284   0.875  0.00  0.00     0.021 C 
ATOM     16  C   UNL d   1       3.015  -8.692   0.143  0.00  0.00     0.024 C 
ATOM     17  C   UNL d   1       4.458  -6.992   1.201  0.00  0.00     0.018 C 
ATOM     18  C   UNL d   1       4.742  -5.577   1.581  0.00  0.00     0.011 C 
ATOM     19  C   UNL d   1       4.366  -4.734   0.417  0.00  0.00     0.024 C 
ENDROOT
BRANCH   1  20
ATOM     20  O   UNL d   1       5.291   1.212   2.034  0.00  0.00    -0.318 OA
BRANCH  20  21
ATOM     21  C   UNL d   1       5.412   1.926   0.870  0.00  0.00     0.292 C 
ATOM     22  C   UNL d   1       4.799   1.333  -0.501  0.00  0.00     0.171 C 
ATOM     23  C   UNL d   1       5.328   2.313  -1.517  0.00  0.00     0.177 C 
ATOM     24  C   UNL d   1       4.999   3.765  -1.102  0.00  0.00     0.180 C 
ATOM     25  C   UNL d   1       5.356   4.094   0.357  0.00  0.00     0.179 C 
ATOM     26  O   UNL d   1       4.794   3.132   1.193  0.00  0.00    -0.349 OA
BRANCH  22  27
ATOM     27  N   UNL d   1       5.207  -0.131  -0.846  0.00  0.00    -0.349 N 
ATOM     28  C   UNL d   1       5.244  -1.412   0.057  0.00  0.00     0.214 C 
ATOM     29  C   UNL d   1       4.910  -1.573   2.191  0.00  0.00     0.117 C 
ATOM     30  O   UNL d   1       5.682  -2.239  -0.833  0.00  0.00    -0.274 OA
ATOM     31  H   UNL d   1       5.507  -0.318  -1.807  0.00  0.00     0.163 HD
ENDBRANCH  22  27
BRANCH  23  32
ATOM     32  O   UNL d   1       4.795   2.003  -2.801  0.00  0.00    -0.391 OA
ATOM     33  H   UNL d   1       3.824   2.033  -2.729  0.00  0.00     0.210 HD
ENDBRANCH  23  32
BRANCH  24  34
ATOM     34  O   UNL d   1       5.740   4.624  -1.955  0.00  0.00    -0.390 OA
ATOM     35  H   UNL d   1       6.681   4.417  -1.823  0.00  0.00     0.210 HD
ENDBRANCH  24  34
BRANCH  25  36
ATOM     36  C   UNL d   1       4.780   5.405   0.836  0.00  0.00     0.198 C 
BRANCH  36  37
ATOM     37  O   UNL d   1       5.279   6.486   0.083  0.00  0.00    -0.398 OA
ATOM     38  H   UNL d   1       6.247   6.401   0.064  0.00  0.00     0.209 HD
ENDBRANCH  36  37
ENDBRANCH  25  36
ENDBRANCH  20  21
ENDBRANCH   1  20
TORSDOF 7
