REMARK  8 active torsions:
REMARK  status: ('A' for Active; 'I' for Inactive)
REMARK       I    between atoms: C_2  and  N_3 
REMARK    1  A    between atoms: C_2  and  C_14 
REMARK    2  A    between atoms: N_3  and  CA_4 
REMARK    3  A    between atoms: CA_4  and  C_5 
REMARK    4  A    between atoms: CA_4  and  C_8 
REMARK    5  A    between atoms: C_14  and  C_15 
REMARK    6  A    between atoms: C_14  and  N_25 
REMARK    7  A    between atoms: C_15  and  C_16 
REMARK    8  A    between atoms: C_35  and  O_36 
ROOT
ATOM      1  C   UNL d   1       2.882  -1.451  -0.132  0.00  0.00     0.185 C 
ENDROOT
BRANCH   1   2
ATOM      2  C   UNL d   1       2.024  -0.053  -0.310  0.00  0.00     0.241 C 
ATOM      3  O   UNL d   1       0.798  -0.146  -0.356  0.00  0.00    -0.271 OA
ATOM      4  N   UNL d   1       2.677   1.193  -0.340  0.00  0.00    -0.341 N 
ATOM      5  H   UNL d   1       3.598   1.246  -0.727  0.00  0.00     0.163 HD
BRANCH   4   6
ATOM      6  CA  UNL d   1       2.070   2.589  -0.290  0.00  0.00     0.219 C 
BRANCH   6   7
ATOM      7  C   UNL d   1       1.207   2.878   1.039  0.00  0.00     0.201 C 
ATOM      8  O   UNL d   1       1.524   3.885   1.741  0.00  0.00    -0.646 OA
ATOM      9  OXT UNL d   1       0.270   2.063   1.279  0.00  0.00    -0.646 OA
ENDBRANCH   6   7
BRANCH   6  10
ATOM     10  C   UNL d   1       3.138   3.738  -0.479  0.00  0.00    -0.025 A 
ATOM     11  C   UNL d   1       4.534   3.571  -0.461  0.00  0.00     0.010 A 
ATOM     12  C   UNL d   1       5.439   4.641  -0.402  0.00  0.00     0.001 A 
ATOM     13  C   UNL d   1       4.970   5.940  -0.459  0.00  0.00     0.000 A 
ATOM     14  C   UNL d   1       3.599   6.155  -0.545  0.00  0.00     0.001 A 
ATOM     15  C   UNL d   1       2.700   5.073  -0.569  0.00  0.00     0.010 A 
ENDBRANCH   6  10
ENDBRANCH   4   6
ENDBRANCH   1   2
BRANCH   1  16
ATOM     16  C   UNL d   1       2.397  -2.855  -1.248  0.00  0.00     0.052 C 
BRANCH  16  17
ATOM     17  C   UNL d   1       0.813  -3.678  -1.671  0.00  0.00     0.022 C 
ATOM     18  C   UNL d   1       0.354  -2.768  -2.606  0.00  0.00     0.093 C 
ATOM     19  N   UNL d   1      -0.950  -2.780  -2.169  0.00  0.00    -0.285 NA
ATOM     20  C   UNL d   1      -1.410  -3.903  -2.792  0.00  0.00     0.015 A 
ATOM     21  H   UNL d   1      -1.206  -2.675  -1.199  0.00  0.00     0.128 HD
ATOM     22  C   UNL d   1      -2.587  -3.977  -3.575  0.00  0.00     0.024 A 
ATOM     23  C   UNL d   1      -0.293  -4.766  -2.592  0.00  0.00    -0.025 A 
ATOM     24  C   UNL d   1      -2.850  -5.050  -4.386  0.00  0.00     0.002 A 
ATOM     25  C   UNL d   1      -1.866  -6.023  -4.396  0.00  0.00     0.001 A 
ATOM     26  C   UNL d   1      -0.601  -5.939  -3.525  0.00  0.00     0.010 A 
ENDBRANCH  16  17
ENDBRANCH   1  16
BRANCH   1  27
ATOM     27  N   UNL d   1       4.505  -1.204   0.010  0.00  0.00    -0.291 N 
ATOM     28  C   UNL d   1       5.388  -2.248   0.085  0.00  0.00     0.260 C 
ATOM     29  O   UNL d   1       5.029  -3.448   0.187  0.00  0.00    -0.267 OA
ATOM     30  C   UNL d   1       6.843  -1.957   0.088  0.00  0.00     0.058 C 
ATOM     31  C   UNL d   1       7.752  -2.766  -0.568  0.00  0.00     0.019 C 
ATOM     32  C   UNL d   1       7.277  -0.825   0.777  0.00  0.00     0.047 C 
ATOM     33  C   UNL d   1       9.116  -2.522  -0.417  0.00  0.00     0.001 C 
ATOM     34  C   UNL d   1       9.566  -1.450   0.362  0.00  0.00     0.002 C 
ATOM     35  C   UNL d   1       8.645  -0.603   0.980  0.00  0.00     0.030 C 
ATOM     36  N   UNL d   1       6.332   0.136   1.055  0.00  0.00    -0.346 N 
ATOM     37  C   UNL d   1       5.127   0.097   0.254  0.00  0.00     0.332 C 
ATOM     38  H   UNL d   1       6.246   0.476   2.009  0.00  0.00     0.164 HD
BRANCH  37  39
ATOM     39  O   UNL d   1       5.462   0.610  -1.025  0.00  0.00    -0.359 OA
ATOM     40  H   UNL d   1       6.420   0.468  -1.131  0.00  0.00     0.214 HD
ENDBRANCH  37  39
ENDBRANCH   1  27
TORSDOF 8
