REMARK  8 active torsions:
REMARK  status: ('A' for Active; 'I' for Inactive)
REMARK    1  A    between atoms: O_2  and  C_3 
REMARK    2  A    between atoms: C_3  and  C_5 
REMARK    3  A    between atoms: C_8  and  C_9 
REMARK    4  A    between atoms: C_9  and  N_10 
REMARK       I    between atoms: N_10  and  C_11 
REMARK       I    between atoms: C_11  and  N_13 
REMARK    5  A    between atoms: C_14  and  N_13 
REMARK    6  A    between atoms: C_14  and  C_16 
REMARK    7  A    between atoms: C_19  and  N_20 
REMARK       I    between atoms: N_20  and  C_21 
REMARK       I    between atoms: C_21  and  N_23 
REMARK    8  A    between atoms: N_23  and  C_24 
ROOT
ATOM      1  C   UNL d   1      12.685   1.620  -2.127  0.00  0.00     0.115 C 
ATOM      2  C   UNL d   1      11.180   1.584  -1.849  0.00  0.00     0.037 C 
ENDROOT
BRANCH   1   3
ATOM      3  C   UNL d   1      12.939   1.998  -3.579  0.00  0.00    -0.036 A 
ATOM      4  C   UNL d   1      13.401   1.141  -4.589  0.00  0.00     0.011 A 
ATOM      5  C   UNL d   1      13.652   1.614  -5.901  0.00  0.00     0.030 A 
ATOM      6  C   UNL d   1      13.352   2.935  -6.256  0.00  0.00     0.036 A 
ATOM      7  C   UNL d   1      12.896   3.770  -5.233  0.00  0.00     0.030 A 
ATOM      8  C   UNL d   1      12.691   3.322  -3.933  0.00  0.00     0.011 A 
BRANCH   6   9
ATOM      9  N   UNL d   1      13.472   3.390  -7.612  0.00  0.00    -0.309 N 
ATOM     10  C   UNL d   1      13.079   4.658  -8.029  0.00  0.00     0.325 C 
ATOM     11  O   UNL d   1      12.613   5.513  -7.280  0.00  0.00    -0.247 OA
ATOM     12  N   UNL d   1      13.214   4.922  -9.384  0.00  0.00    -0.309 N 
ATOM     13  H   UNL d   1      13.254   4.157 -10.038  0.00  0.00     0.170 HD
ATOM     14  H   UNL d   1      13.780   2.716  -8.298  0.00  0.00     0.170 HD
BRANCH  12  15
ATOM     15  C   UNL d   1      12.849   6.210  -9.891  0.00  0.00     0.036 A 
ATOM     16  C   UNL d   1      12.123   6.333 -11.079  0.00  0.00     0.029 A 
ATOM     17  C   UNL d   1      11.814   7.605 -11.589  0.00  0.00     0.002 A 
ATOM     18  C   UNL d   1      12.190   8.759 -10.900  0.00  0.00     0.000 A 
ATOM     19  C   UNL d   1      12.900   8.646  -9.711  0.00  0.00     0.002 A 
ATOM     20  C   UNL d   1      13.226   7.381  -9.214  0.00  0.00     0.029 A 
ENDBRANCH  12  15
ENDBRANCH   6   9
ENDBRANCH   1   3
BRANCH   1  21
ATOM     21  N   UNL d   1      13.332   0.388  -1.700  0.00  0.00    -0.335 N 
ATOM     22  C   UNL d   1      13.888   0.111  -0.486  0.00  0.00     0.316 C 
ATOM     23  N   UNL d   1      13.504   0.925   0.529  0.00  0.00    -0.339 N 
ATOM     24  O   UNL d   1      14.667  -0.829  -0.361  0.00  0.00    -0.247 OA
ATOM     25  H   UNL d   1      12.661   1.430   0.356  0.00  0.00     0.164 HD
ATOM     26  H   UNL d   1      13.540  -0.317  -2.391  0.00  0.00     0.165 HD
BRANCH  23  27
ATOM     27  C   UNL d   1      13.897   0.723   1.911  0.00  0.00     0.162 C 
BRANCH  27  28
ATOM     28  C   UNL d   1      13.157   1.608   2.910  0.00  0.00    -0.040 A 
ATOM     29  C   UNL d   1      13.466   1.508   4.278  0.00  0.00     0.010 A 
ATOM     30  C   UNL d   1      12.726   2.216   5.242  0.00  0.00     0.018 A 
ATOM     31  C   UNL d   1      11.701   3.088   4.854  0.00  0.00     0.039 A 
ATOM     32  C   UNL d   1      11.405   3.223   3.500  0.00  0.00     0.018 A 
ATOM     33  C   UNL d   1      12.129   2.496   2.546  0.00  0.00     0.010 A 
BRANCH  31  34
ATOM     34  C   UNL d   1      11.058   3.971   5.856  0.00  0.00     0.292 C 
ATOM     35  O   UNL d   1      11.688   4.487   6.777  0.00  0.00    -0.259 OA
BRANCH  34  36
ATOM     36  O   UNL d   1       9.733   4.126   5.615  0.00  0.00    -0.323 OA
ATOM     37  C   UNL d   1       9.066   4.983   6.552  0.00  0.00     0.213 C 
ENDBRANCH  34  36
ENDBRANCH  31  34
ENDBRANCH  27  28
ENDBRANCH  23  27
ENDBRANCH   1  21
TORSDOF 8
