REMARK  4 active torsions:
REMARK  status: ('A' for Active; 'I' for Inactive)
REMARK    1  A    between atoms: C_5  and  C_6 
REMARK    2  A    between atoms: C_8  and  N_9 
REMARK    3  A    between atoms: C_13  and  C_14 
REMARK    4  A    between atoms: C_17  and  C_18 
REMARK       I    between atoms: C_18  and  N_19 
ROOT
ATOM      1  C   UNL d   1      -2.997   0.811   0.042  0.00  0.00     0.083 A 
ATOM      2  N   UNL d   1      -3.376   1.620  -0.992  0.00  0.00    -0.228 NA
ATOM      3  C   UNL d   1      -4.628   2.150  -0.984  0.00  0.00     0.143 A 
ATOM      4  C   UNL d   1      -5.536   1.894   0.043  0.00  0.00     0.101 A 
ATOM      5  C   UNL d   1      -6.846   2.483  -0.001  0.00  0.00     0.104 C 
ATOM      6  N   UNL d   1      -7.915   2.944  -0.059  0.00  0.00    -0.191 NA
ATOM      7  C   UNL d   1      -5.152   1.061   1.113  0.00  0.00     0.007 A 
ATOM      8  C   UNL d   1      -3.855   0.496   1.112  0.00  0.00    -0.019 A 
ATOM      9  C   UNL d   1      -3.397  -0.422   2.221  0.00  0.00     0.052 C 
ENDROOT
BRANCH   3  10
ATOM     10  N   UNL d   1      -5.002   2.927  -2.068  0.00  0.00    -0.383 N 
ATOM     11  H   UNL d   1      -4.311   3.128  -2.775  0.00  0.00     0.157 HD
ATOM     12  H   UNL d   1      -5.893   3.409  -2.103  0.00  0.00     0.157 HD
ENDBRANCH   3  10
BRANCH   7  13
ATOM     13  C   UNL d   1      -6.114   0.760   2.186  0.00  0.00    -0.024 A 
ATOM     14  C   UNL d   1      -7.303   0.088   1.880  0.00  0.00     0.013 A 
ATOM     15  C   UNL d   1      -8.228  -0.211   2.872  0.00  0.00     0.018 A 
ATOM     16  C   UNL d   1      -7.972   0.121   4.203  0.00  0.00     0.031 A 
ATOM     17  C   UNL d   1      -6.778   0.782   4.526  0.00  0.00     0.018 A 
ATOM     18  C   UNL d   1      -5.867   1.119   3.520  0.00  0.00     0.013 A 
BRANCH  16  19
ATOM     19  C   UNL d   1      -8.942  -0.216   5.282  0.00  0.00     0.249 C 
ATOM     20  N   UNL d   1     -10.102  -0.853   4.926  0.00  0.00    -0.366 N 
ATOM     21  H   UNL d   1     -10.368  -1.104   3.987  0.00  0.00     0.159 HD
ATOM     22  H   UNL d   1     -10.763  -1.069   5.659  0.00  0.00     0.159 HD
ATOM     23  O   UNL d   1      -8.716   0.059   6.453  0.00  0.00    -0.268 OA
ENDBRANCH  16  19
ENDBRANCH   7  13
BRANCH   1  24
ATOM     24  C   UNL d   1      -1.650   0.189  -0.056  0.00  0.00     0.034 A 
ATOM     25  C   UNL d   1      -1.336  -1.163  -0.065  0.00  0.00     0.022 A 
ATOM     26  C   UNL d   1       0.061  -1.429  -0.025  0.00  0.00     0.015 A 
ATOM     27  C   UNL d   1       0.808  -0.272  -0.014  0.00  0.00    -0.021 A 
ATOM     28  C   UNL d   1       2.299  -0.160   0.011  0.00  0.00     0.056 C 
ATOM     29  S   UNL d   1      -0.203   1.122  -0.035  0.00  0.00    -0.093 SA
ENDBRANCH   1  24
TORSDOF 4
