@<TRIPOS>MOLECULE
*****
 46 47 0 0 0
SMALL
GASTEIGER

@<TRIPOS>ATOM
      1 C           5.8808   -7.3885   -0.8093 C.3     1  UNL1       -0.0653
      2 C           4.9332   -6.2140   -1.0570 C.3     1  UNL1       -0.0558
      3 C           5.2790   -5.1364   -0.0621 C.3     1  UNL1       -0.0512
      4 C           4.5467   -3.8068   -0.1368 C.3     1  UNL1       -0.0259
      5 C           5.1553   -2.7453    0.8398 C.3     1  UNL1        0.1011
      6 N           4.6037   -1.4093    0.4523 N.am    1  UNL1       -0.2883
      7 C           5.0882   -0.1621    0.2592 C.2     1  UNL1        0.2976
      8 N           6.3806    0.1133    0.4757 N.am    1  UNL1       -0.3133
      9 O           4.3269    0.7338   -0.0932 O.2     1  UNL1       -0.2531
     10 C           6.7097   -2.8506    0.8754 C.2     1  UNL1        0.2376
     11 O           7.4113   -2.0528    0.2436 O.2     1  UNL1       -0.2734
     12 N           7.3214   -3.9239    1.5240 N.am    1  UNL1       -0.2840
     13 C           8.7246   -4.0136    1.3970 C.ar    1  UNL1        0.0342
     14 C           9.4615   -2.9450    1.9021 C.ar    1  UNL1       -0.0385
     15 C          10.8432   -2.9283    1.8350 C.ar    1  UNL1       -0.0345
     16 C          11.4515   -4.0250    1.2275 C.ar    1  UNL1        0.0667
     17 N          12.7708   -4.3081    1.0380 N.ar    1  UNL1       -0.2762
     18 N          13.0015   -5.4620    0.4011 N.ar    1  UNL1       -0.1661
     19 C          11.7745   -5.9680    0.1461 C.ar    1  UNL1        0.1767
     20 C          11.6144   -7.2569   -0.5600 C.2     1  UNL1        0.3598
     21 O          12.5548   -7.9579   -0.9401 O.2     1  UNL1       -0.2432
     22 O          10.3043   -7.6103   -0.7518 O.3     1  UNL1       -0.4633
     23 C          10.1090   -8.8550   -1.4321 C.3     1  UNL1        0.0820
     24 C          10.7569   -5.0995    0.6750 C.ar    1  UNL1        0.0356
     25 C           9.3452   -5.0984    0.7584 C.ar    1  UNL1       -0.0290
     26 H           5.6931   -8.1906   -1.5235 H       1  UNL1        0.0230
     27 H           5.7611   -7.7829    0.2068 H       1  UNL1        0.0230
     28 H           6.9298   -7.0809   -0.9127 H       1  UNL1        0.0230
     29 H           3.8919   -6.5210   -0.9478 H       1  UNL1        0.0263
     30 H           5.0904   -5.8285   -2.0694 H       1  UNL1        0.0263
     31 H           6.3264   -4.9397   -0.2954 H       1  UNL1        0.0266
     32 H           5.1730   -5.5376    0.9537 H       1  UNL1        0.0266
     33 H           3.4822   -3.9603    0.0892 H       1  UNL1        0.0288
     34 H           4.5888   -3.4313   -1.1668 H       1  UNL1        0.0288
     35 H           4.7663   -2.9461    1.8470 H       1  UNL1        0.0595
     36 H           3.5968   -1.3742    0.3535 H       1  UNL1        0.1510
     37 H           7.0650   -0.6327    0.4063 H       1  UNL1        0.1465
     38 H           6.7249    0.9807    0.0858 H       1  UNL1        0.1465
     39 H           6.8402   -4.8086    1.5924 H       1  UNL1        0.1549
     40 H           8.9391   -2.1042    2.3534 H       1  UNL1        0.0637
     41 H          11.3980   -2.0950    2.2495 H       1  UNL1        0.0639
     42 H          13.5603   -3.7466    1.3377 H       1  UNL1        0.1889
     43 H           9.0315   -9.0226   -1.5262 H       1  UNL1        0.0661
     44 H          10.5329   -9.6843   -0.8567 H       1  UNL1        0.0661
     45 H          10.5371   -8.8214   -2.4392 H       1  UNL1        0.0661
     46 H           8.7721   -5.8889    0.2846 H       1  UNL1        0.0643
@<TRIPOS>BOND
     1     1     2    1
     2     2     3    1
     3     3     4    1
     4     6     7   am
     5     7     8   am
     6     7     9    2
     7     5    10    1
     8    10    11    2
     9    10    12   am
    10    12    13    1
    11    13    14   ar
    12    14    15   ar
    13    15    16   ar
    14    16    17   ar
    15    17    18   ar
    16    18    19   ar
    17    19    20    1
    18    20    21    2
    19    20    22    1
    20    22    23    1
    21    19    24   ar
    22    16    24   ar
    23    24    25   ar
    24    13    25   ar
    25     5     6    1
    26     5     4    1
    27     1    26    1
    28     1    27    1
    29     1    28    1
    30     2    29    1
    31     2    30    1
    32     3    31    1
    33     3    32    1
    34     4    33    1
    35     4    34    1
    36     5    35    1
    37     6    36    1
    38     8    37    1
    39     8    38    1
    40    12    39    1
    41    14    40    1
    42    15    41    1
    43    17    42    1
    44    23    43    1
    45    23    44    1
    46    23    45    1
    47    25    46    1
