REMARK  4 active torsions:
REMARK  status: ('A' for Active; 'I' for Inactive)
REMARK    1  A    between atoms: C_2  and  C_3 
REMARK       I    between atoms: C_2  and  N_17 
REMARK    2  A    between atoms: C_3  and  C_4 
REMARK    3  A    between atoms: N_17  and  N_18 
REMARK    4  A    between atoms: N_18  and  C_19 
ROOT
ATOM      1  C   UNL d   1       2.198  -1.681   1.834  0.00  0.00    -0.013 A 
ATOM      2  C   UNL d   1       1.151  -1.219   2.612  0.00  0.00     0.151 A 
ATOM      3  O   UNL d   1       0.545  -2.228   3.276  0.00  0.00    -0.321 OA
ATOM      4  C   UNL d   1       1.183  -3.374   2.927  0.00  0.00     0.086 A 
ATOM      5  C   UNL d   1       0.830  -4.638   3.393  0.00  0.00     0.039 A 
ATOM      6  C   UNL d   1       1.575  -5.716   2.912  0.00  0.00     0.015 A 
ATOM      7  C   UNL d   1       2.638  -5.533   2.015  0.00  0.00    -0.025 A 
ATOM      8  C   UNL d   1       3.358  -6.637   1.531  0.00  0.00     0.012 A 
ATOM      9  C   UNL d   1       4.416  -6.476   0.635  0.00  0.00     0.001 A 
ATOM     10  C   UNL d   1       4.784  -5.206   0.219  0.00  0.00     0.001 A 
ATOM     11  C   UNL d   1       4.090  -4.097   0.692  0.00  0.00     0.013 A 
ATOM     12  C   UNL d   1       2.997  -4.229   1.577  0.00  0.00    -0.012 A 
ATOM     13  C   UNL d   1       2.227  -3.111   2.040  0.00  0.00     0.017 A 
ENDROOT
BRANCH   1  14
ATOM     14  C   UNL d   1       3.086  -0.824   0.984  0.00  0.00     0.145 C 
BRANCH  14  15
ATOM     15  C   UNL d   1       2.362   0.078   0.001  0.00  0.00     0.236 C 
ATOM     16  O   UNL d   1       1.133   0.126  -0.111  0.00  0.00    -0.272 OA
ATOM     17  N   UNL d   1       3.138   0.917  -0.779  0.00  0.00    -0.287 N 
ATOM     18  H   UNL d   1       2.610   1.357  -1.531  0.00  0.00     0.184 HD
BRANCH  17  19
ATOM     19  N   UNL d   1       4.478   0.618  -1.102  0.00  0.00    -0.203 NA
ATOM     20  H   UNL d   1       5.067   0.352  -0.309  0.00  0.00     0.153 HD
BRANCH  19  21
ATOM     21  C   UNL d   1       5.135   1.620  -1.870  0.00  0.00     0.027 A 
ATOM     22  C   UNL d   1       6.275   1.243  -2.596  0.00  0.00     0.025 A 
ATOM     23  C   UNL d   1       6.961   2.160  -3.400  0.00  0.00     0.002 A 
ATOM     24  C   UNL d   1       6.500   3.468  -3.515  0.00  0.00     0.000 A 
ATOM     25  C   UNL d   1       5.396   3.874  -2.770  0.00  0.00     0.002 A 
ATOM     26  C   UNL d   1       4.731   2.962  -1.936  0.00  0.00     0.025 A 
ENDBRANCH  19  21
ENDBRANCH  17  19
ENDBRANCH  14  15
ENDBRANCH   1  14
TORSDOF 4
