REMARK  10 active torsions:
REMARK  status: ('A' for Active; 'I' for Inactive)
REMARK    1  A    between atoms: C_2  and  C_3 
REMARK    2  A    between atoms: C_3  and  N_4 
REMARK       I    between atoms: N_4  and  C_5 
REMARK    3  A    between atoms: C_5  and  C_7 
REMARK    4  A    between atoms: C_7  and  C_8 
REMARK    5  A    between atoms: C_8  and  S_9 
REMARK    6  A    between atoms: S_9  and  C_10 
REMARK    7  A    between atoms: C_13  and  N_14 
REMARK    8  A    between atoms: N_14  and  N_15 
REMARK    9  A    between atoms: C_16  and  C_18 
REMARK   10  A    between atoms: C_19  and  C_20 
ROOT
ATOM      1  C   UNL d   1      10.253  -3.526  -2.740  0.00  0.00     0.226 A 
ATOM      2  N   UNL d   1       9.977  -4.830  -2.621  0.00  0.00    -0.132 NA
ATOM      3  N   UNL d   1      10.844  -5.362  -3.509  0.00  0.00    -0.103 N 
ATOM      4  C   UNL d   1      11.610  -4.403  -4.126  0.00  0.00     0.739 A 
ATOM      5  N   UNL d   1      11.261  -3.236  -3.628  0.00  0.00    -0.034 NA
ATOM      6  H   UNL d   1      10.854  -6.365  -3.646  0.00  0.00     0.208 HD
ENDROOT
BRANCH   4   7
ATOM      7  N   UNL d   1      12.534  -4.731  -5.077  0.00  0.00    -0.106 N 
ATOM      8  H   UNL d   1      12.628  -5.704  -5.343  0.00  0.00     0.208 HD
BRANCH   7   9
ATOM      9  N   UNL d   1      13.291  -3.787  -5.725  0.00  0.00    -0.165 NA
ATOM     10  C   UNL d   1      14.142  -4.121  -6.662  0.00  0.00     0.051 C 
ATOM     11  C   UNL d   1      14.416  -5.530  -7.141  0.00  0.00     0.072 C 
BRANCH  10  12
ATOM     12  C   UNL d   1      14.930  -3.015  -7.321  0.00  0.00     0.029 C 
ATOM     13  C   UNL d   1      15.834  -3.191  -8.303  0.00  0.00     0.013 C 
BRANCH  13  14
ATOM     14  C   UNL d   1      16.642  -2.091  -8.863  0.00  0.00    -0.036 A 
ATOM     15  C   UNL d   1      16.906  -2.003 -10.238  0.00  0.00     0.011 A 
ATOM     16  C   UNL d   1      17.761  -1.008 -10.734  0.00  0.00     0.001 A 
ATOM     17  C   UNL d   1      18.313  -0.064  -9.870  0.00  0.00     0.000 A 
ATOM     18  C   UNL d   1      18.058  -0.145  -8.505  0.00  0.00     0.001 A 
ATOM     19  C   UNL d   1      17.244  -1.163  -8.005  0.00  0.00     0.011 A 
ENDBRANCH  13  14
ENDBRANCH  10  12
ENDBRANCH   7   9
ENDBRANCH   4   7
BRANCH   1  20
ATOM     20  S   UNL d   1       9.510  -2.288  -1.740  0.00  0.00    -0.087 SA
BRANCH  20  21
ATOM     21  C   UNL d   1       7.718  -2.575  -1.949  0.00  0.00     0.091 C 
BRANCH  21  22
ATOM     22  C   UNL d   1       6.880  -1.529  -1.175  0.00  0.00     0.113 C 
BRANCH  22  23
ATOM     23  C   UNL d   1       5.382  -1.771  -1.357  0.00  0.00     0.218 C 
ATOM     24  N   UNL d   1       4.531  -0.893  -0.703  0.00  0.00    -0.358 N 
ATOM     25  H   UNL d   1       4.904  -0.138  -0.142  0.00  0.00     0.162 HD
ATOM     26  O   UNL d   1       4.948  -2.696  -2.048  0.00  0.00    -0.274 OA
BRANCH  24  27
ATOM     27  C   UNL d   1       3.093  -1.065  -0.832  0.00  0.00     0.149 C 
BRANCH  27  28
ATOM     28  C   UNL d   1       2.322  -0.032  -0.062  0.00  0.00    -0.018 C 
ATOM     29  C   UNL d   1       0.978  -0.006  -0.043  0.00  0.00     0.008 C 
ENDBRANCH  27  28
ENDBRANCH  24  27
ENDBRANCH  22  23
ENDBRANCH  21  22
ENDBRANCH  20  21
ENDBRANCH   1  20
TORSDOF 10
