REMARK  12 active torsions:
REMARK  status: ('A' for Active; 'I' for Inactive)
REMARK    1  A    between atoms: C_2  and  C_3 
REMARK    2  A    between atoms: C_3  and  C_4 
REMARK    3  A    between atoms: C_4  and  O_5 
REMARK    4  A    between atoms: O_5  and  C_6 
REMARK    5  A    between atoms: C_9  and  C_10 
REMARK    6  A    between atoms: C_10  and  C_12 
REMARK    7  A    between atoms: C_13  and  O_14 
REMARK    8  A    between atoms: N_17  and  C_18 
REMARK    9  A    between atoms: C_18  and  C_19 
REMARK   10  A    between atoms: C_19  and  N_20 
REMARK   11  A    between atoms: C_23  and  C_24 
REMARK   12  A    between atoms: C_28  and  N_29 
ROOT
ATOM      1  C   UNL d   1      11.547  -0.784   3.111  0.00  0.00     0.054 C 
ATOM      2  C   UNL d   1      12.720  -0.946   3.758  0.00  0.00     0.140 C 
ATOM      3  C   UNL d   1      13.459   0.321   3.676  0.00  0.00     0.258 C 
ATOM      4  O   UNL d   1      13.381   1.268   4.434  0.00  0.00    -0.272 OA
ATOM      5  N   UNL d   1      13.586   0.547   2.292  0.00  0.00    -0.232 NA
ATOM      6  C   UNL d   1      11.752   0.555   2.260  0.00  0.00     0.139 C 
ENDROOT
BRANCH   1   7
ATOM      7  C   UNL d   1      10.613  -2.009   3.157  0.00  0.00     0.193 C 
ATOM      8  O   UNL d   1      11.133  -3.109   3.343  0.00  0.00    -0.287 OA
BRANCH   7   9
ATOM      9  C   UNL d   1       9.087  -1.988   3.126  0.00  0.00     0.015 C 
ATOM     10  C   UNL d   1       8.394  -0.803   3.191  0.00  0.00     0.018 C 
ATOM     11  C   UNL d   1       7.010  -0.698   2.931  0.00  0.00     0.038 C 
ATOM     12  C   UNL d   1       6.232  -1.800   2.689  0.00  0.00     0.074 C 
ATOM     13  C   UNL d   1       6.832  -3.025   2.973  0.00  0.00    -0.028 C 
ATOM     14  C   UNL d   1       8.258  -3.127   3.151  0.00  0.00     0.025 C 
ATOM     15  C   UNL d   1       5.919  -4.192   3.193  0.00  0.00     0.051 C 
BRANCH  12  16
ATOM     16  O   UNL d   1       4.886  -1.708   2.441  0.00  0.00    -0.351 OA
BRANCH  16  17
ATOM     17  C   UNL d   1       4.493  -0.898   1.310  0.00  0.00     0.175 C 
BRANCH  17  18
ATOM     18  C   UNL d   1       2.962  -0.842   1.238  0.00  0.00     0.026 C 
BRANCH  18  19
ATOM     19  C   UNL d   1       2.446  -0.083   0.010  0.00  0.00    -0.002 C 
ATOM     20  C   UNL d   1       0.923  -0.062  -0.012  0.00  0.00     0.005 C 
ENDBRANCH  18  19
ENDBRANCH  17  18
ENDBRANCH  16  17
ENDBRANCH  12  16
ENDBRANCH   7   9
ENDBRANCH   1   7
BRANCH   2  21
ATOM     21  O   UNL d   1      13.409  -2.107   3.978  0.00  0.00    -0.356 OA
ATOM     22  H   UNL d   1      12.824  -2.838   3.674  0.00  0.00     0.218 HD
ENDBRANCH   2  21
BRANCH   6  23
ATOM     23  C   UNL d   1      10.264   1.046   1.483  0.00  0.00    -0.033 C 
ATOM     24  C   UNL d   1       9.531   0.192   0.599  0.00  0.00     0.009 C 
ATOM     25  C   UNL d   1       8.122   0.384   0.250  0.00  0.00     0.003 C 
ATOM     26  C   UNL d   1       7.327   1.428   0.748  0.00  0.00     0.036 C 
ATOM     27  C   UNL d   1       7.885   2.221   1.751  0.00  0.00     0.103 C 
ATOM     28  C   UNL d   1       9.305   2.022   2.129  0.00  0.00     0.045 C 
BRANCH  27  29
ATOM     29  N   UNL d   1       6.877   3.032   2.550  0.00  0.00    -0.116 N 
ATOM     30  O   UNL d   1       5.694   3.017   2.218  0.00  0.00    -0.532 OA
ATOM     31  O   UNL d   1       7.312   3.650   3.558  0.00  0.00    -0.532 OA
ENDBRANCH  27  29
ENDBRANCH   6  23
BRANCH   5  32
ATOM     32  C   UNL d   1      15.192   1.343   2.394  0.00  0.00     0.127 C 
BRANCH  32  33
ATOM     33  C   UNL d   1      16.866   0.721   2.950  0.00  0.00     0.248 C 
BRANCH  33  34
ATOM     34  N   UNL d   1      18.115   1.940   2.936  0.00  0.00    -0.078 N 
ATOM     35  C   UNL d   1      17.880   3.067   3.915  0.00  0.00     0.269 C 
ATOM     36  C   UNL d   1      19.609   1.515   3.159  0.00  0.00     0.269 C 
ATOM     37  H   UNL d   1      18.114   2.331   1.987  0.00  0.00     0.279 HD
ENDBRANCH  33  34
ENDBRANCH  32  33
ENDBRANCH   5  32
TORSDOF 12
