REMARK  13 active torsions:
REMARK  status: ('A' for Active; 'I' for Inactive)
REMARK    1  A    between atoms: C_2  and  C_3 
REMARK    2  A    between atoms: C_3  and  C_4 
REMARK       I    between atoms: C_4  and  N_6 
REMARK    3  A    between atoms: N_6  and  C_7 
REMARK    4  A    between atoms: C_14  and  N_6 
REMARK    5  A    between atoms: C_7  and  C_8 
REMARK    6  A    between atoms: C_14  and  C_26 
REMARK    7  A    between atoms: C_14  and  C_15 
REMARK       I    between atoms: C_15  and  N_17 
REMARK    8  A    between atoms: N_17  and  C_18 
REMARK    9  A    between atoms: C_18  and  C_21 
REMARK   10  A    between atoms: C_21  and  C_22 
REMARK   11  A    between atoms: C_27  and  O_28 
REMARK   12  A    between atoms: C_30  and  O_31 
REMARK   13  A    between atoms: C_33  and  O_34 
ROOT
ATOM      1  C   UNL d   1       6.897  -1.014   2.679  0.00  0.00     0.218 C 
ENDROOT
BRANCH   1   2
ATOM      2  C   UNL d   1       7.398  -1.680   3.976  0.00  0.00     0.040 C 
ATOM      3  C   UNL d   1       7.218  -3.073   4.158  0.00  0.00     0.080 C 
ATOM      4  C   UNL d   1       7.578  -3.711   5.362  0.00  0.00     0.073 C 
ATOM      5  C   UNL d   1       8.196  -2.997   6.376  0.00  0.00     0.071 C 
ATOM      6  C   UNL d   1       8.421  -1.664   6.229  0.00  0.00     0.073 C 
ATOM      7  C   UNL d   1       7.934  -1.029   5.105  0.00  0.00     0.080 C 
BRANCH   3   8
ATOM      8  O   UNL d   1       6.612  -3.918   3.261  0.00  0.00    -0.360 OA
ATOM      9  H   UNL d   1       6.329  -3.498   2.431  0.00  0.00     0.217 HD
ENDBRANCH   3   8
BRANCH   5  10
ATOM     10  O   UNL d   1       8.534  -3.499   7.589  0.00  0.00    -0.361 OA
ATOM     11  H   UNL d   1       8.290  -4.433   7.617  0.00  0.00     0.217 HD
ENDBRANCH   5  10
BRANCH   7  12
ATOM     12  O   UNL d   1       7.806   0.285   5.401  0.00  0.00    -0.360 OA
ATOM     13  H   UNL d   1       8.653   0.646   5.716  0.00  0.00     0.217 HD
ENDBRANCH   7  12
ENDBRANCH   1   2
BRANCH   1  14
ATOM     14  C   UNL d   1       5.373  -1.204   2.505  0.00  0.00     0.246 C 
ATOM     15  O   UNL d   1       4.898  -1.323   1.372  0.00  0.00    -0.271 OA
ATOM     16  N   UNL d   1       4.584  -1.154   3.650  0.00  0.00    -0.351 N 
ATOM     17  H   UNL d   1       5.043  -0.976   4.541  0.00  0.00     0.163 HD
BRANCH  16  18
ATOM     18  C   UNL d   1       3.102  -1.166   3.593  0.00  0.00     0.026 C 
ATOM     19  C   UNL d   1       2.568  -0.083   2.621  0.00  0.00     0.038 C 
ATOM     20  C   UNL d   1       2.727  -2.513   2.974  0.00  0.00     0.038 C 
BRANCH  18  21
ATOM     21  C   UNL d   1       2.509  -1.011   5.060  0.00  0.00     0.038 C 
BRANCH  21  22
ATOM     22  C   UNL d   1       0.951  -0.949   5.239  0.00  0.00    -0.049 C 
ATOM     23  C   UNL d   1       0.302   0.273   4.565  0.00  0.00     0.014 C 
ATOM     24  C   UNL d   1       0.283  -2.235   4.744  0.00  0.00     0.014 C 
ATOM     25  C   UNL d   1       0.580  -0.827   6.729  0.00  0.00     0.014 C 
ENDBRANCH  21  22
ENDBRANCH  18  21
ENDBRANCH  16  18
ENDBRANCH   1  14
BRANCH   1  26
ATOM     26  N   UNL d   1       7.291   0.391   2.289  0.00  0.00    -0.328 N 
ATOM     27  C   UNL d   1       7.590   0.704   0.965  0.00  0.00     0.221 C 
ATOM     28  O   UNL d   1       7.517  -0.119   0.031  0.00  0.00    -0.273 OA
BRANCH  27  29
ATOM     29  C   UNL d   1       8.086   2.125   0.733  0.00  0.00     0.103 C 
BRANCH  29  30
ATOM     30  C   UNL d   1       8.373   2.462  -0.710  0.00  0.00     0.005 C 
ATOM     31  C   UNL d   1       8.856   3.898  -0.835  0.00  0.00     0.005 C 
ENDBRANCH  29  30
ENDBRANCH  27  29
BRANCH  26  32
ATOM     32  C   UNL d   1       7.452   1.437   3.300  0.00  0.00     0.192 C 
BRANCH  32  33
ATOM     33  C   UNL d   1       6.177   1.755   3.997  0.00  0.00     0.071 A 
ATOM     34  C   UNL d   1       4.895   1.657   3.527  0.00  0.00     0.037 A 
ATOM     35  C   UNL d   1       4.036   2.011   4.564  0.00  0.00     0.035 A 
ATOM     36  C   UNL d   1       4.823   2.457   5.582  0.00  0.00     0.049 A 
ATOM     37  C   UNL d   1       4.365   3.090   6.827  0.00  0.00     0.076 C 
ATOM     38  O   UNL d   1       6.148   2.324   5.257  0.00  0.00    -0.318 OA
ENDBRANCH  32  33
ENDBRANCH  26  32
ENDBRANCH   1  26
TORSDOF 13
