@<TRIPOS>MOLECULE
*****
 46 47 0 0 0
SMALL
GASTEIGER

@<TRIPOS>ATOM
      1 O           1.1479   -0.0276   -0.3126 O.2     1  UNL1       -0.2739
      2 C           2.3735   -0.0155   -0.1914 C.2     1  UNL1        0.2334
      3 C           3.0649    0.0268    1.1610 C.3     1  UNL1        0.0505
      4 C           2.1330    0.0318    2.3574 C.ar    1  UNL1       -0.0384
      5 C           1.6921    1.2264    2.9425 C.ar    1  UNL1       -0.0547
      6 C           0.9092    1.2014    4.1060 C.ar    1  UNL1       -0.0195
      7 C           0.4757   -0.0119    4.6481 C.ar    1  UNL1        0.1269
      8 O          -0.3404    0.0825    5.7433 O.3     1  UNL1       -0.4342
      9 C          -0.9283   -1.1326    6.1884 C.3     1  UNL1        0.3893
     10 F           0.0386   -1.9227    6.7205 F       1  UNL1       -0.1663
     11 F          -1.7817   -0.8356    7.2006 F       1  UNL1       -0.1663
     12 C           0.8866   -1.2011    4.0474 C.ar    1  UNL1       -0.0195
     13 C           1.7064   -1.1792    2.9152 C.ar    1  UNL1       -0.0547
     14 N           3.1602   -0.0470   -1.3266 N.am    1  UNL1       -0.2329
     15 N           4.5728   -0.0475   -1.3892 N.am    1  UNL1       -0.2182
     16 C           5.1791   -0.0778   -2.6375 C.2     1  UNL1        0.3160
     17 O           4.5486   -0.1019   -3.6942 O.2     1  UNL1       -0.2513
     18 N           6.5618   -0.0740   -2.5985 N.am    1  UNL1       -0.2982
     19 C           7.3500   -0.1047   -3.8310 C.3     1  UNL1        0.0147
     20 C           8.8649   -0.0985   -3.5947 C.3     1  UNL1       -0.0191
     21 C           9.6581   -0.1270   -4.9055 C.3     1  UNL1        0.0296
     22 N          11.1125   -0.1350   -4.6518 N.ar    1  UNL1       -0.2957
     23 C          11.9146   -1.2664   -4.5240 C.ar    1  UNL1        0.0732
     24 C          13.1894   -0.8282   -4.2977 C.ar    1  UNL1        0.1870
     25 N          13.1306    0.5449   -4.3056 N.ar    1  UNL1       -0.2011
     26 C          11.8806    0.9620   -4.5306 C.ar    1  UNL1        0.2463
     27 H           3.7086    0.9125    1.2063 H       1  UNL1        0.0407
     28 H           3.7188   -0.8508    1.2412 H       1  UNL1        0.0407
     29 H           1.9470    2.1873    2.5009 H       1  UNL1        0.0622
     30 H           0.6361    2.1385    4.5884 H       1  UNL1        0.0654
     31 H          -1.4819   -1.6665    5.4065 H       1  UNL1        0.1520
     32 H           0.6072   -2.1733    4.4407 H       1  UNL1        0.0654
     33 H           2.0038   -2.1261    2.4712 H       1  UNL1        0.0622
     34 H           2.6649   -0.0738   -2.2203 H       1  UNL1        0.1728
     35 H           5.1013   -0.0355   -0.5290 H       1  UNL1        0.1744
     36 H           7.0238   -0.0657   -1.7013 H       1  UNL1        0.1503
     37 H           7.0628    0.7644   -4.4349 H       1  UNL1        0.0463
     38 H           7.0627   -1.0011   -4.3935 H       1  UNL1        0.0463
     39 H           9.1509   -0.9633   -2.9839 H       1  UNL1        0.0297
     40 H           9.1518    0.7914   -3.0217 H       1  UNL1        0.0297
     41 H           9.4310    0.7490   -5.5246 H       1  UNL1        0.0494
     42 H           9.4141   -1.0190   -5.4948 H       1  UNL1        0.0494
     43 H          11.4705   -2.2439   -4.6061 H       1  UNL1        0.0871
     44 H          14.1360   -1.3130   -4.1313 H       1  UNL1        0.1392
     45 H          13.9252    1.1666   -4.1674 H       1  UNL1        0.4538
     46 H          11.5537    1.9936   -4.5935 H       1  UNL1        0.1600
@<TRIPOS>UNITY_ATOM_ATTR
25 1
charge 1
@<TRIPOS>BOND
     1     1     2    2
     2     2     3    1
     3     3     4    1
     4     4     5   ar
     5     5     6   ar
     6     6     7   ar
     7     7     8    1
     8     8     9    1
     9     9    10    1
    10     9    11    1
    11     7    12   ar
    12    12    13   ar
    13     4    13   ar
    14     2    14   am
    15    14    15    1
    16    15    16   am
    17    16    17    2
    18    16    18   am
    19    18    19    1
    20    19    20    1
    21    20    21    1
    22    21    22    1
    23    22    23   ar
    24    23    24   ar
    25    24    25   ar
    26    25    26   ar
    27    22    26   ar
    28     3    27    1
    29     3    28    1
    30     5    29    1
    31     6    30    1
    32     9    31    1
    33    12    32    1
    34    13    33    1
    35    14    34    1
    36    15    35    1
    37    18    36    1
    38    19    37    1
    39    19    38    1
    40    20    39    1
    41    20    40    1
    42    21    41    1
    43    21    42    1
    44    23    43    1
    45    24    44    1
    46    25    45    1
    47    26    46    1
