REMARK  6 active torsions:
REMARK  status: ('A' for Active; 'I' for Inactive)
REMARK    1  A    between atoms: C_2  and  C_3 
REMARK       I    between atoms: C_2  and  N_16 
REMARK    2  A    between atoms: C_3  and  C_4 
REMARK    3  A    between atoms: C_4  and  N_5 
REMARK       I    between atoms: N_5  and  C_6 
REMARK       I    between atoms: C_6  and  N_8 
REMARK    4  A    between atoms: N_8  and  N_9 
REMARK    5  A    between atoms: N_9  and  C_10 
REMARK    6  A    between atoms: N_16  and  C_17 
ROOT
ATOM      1  N   UNL d   1       2.636  -3.931  -0.187  0.00  0.00    -0.342 N 
ATOM      2  C   UNL d   1       1.930  -5.112  -0.280  0.00  0.00     0.330 C 
ATOM      3  O   UNL d   1       0.696  -5.135  -0.297  0.00  0.00    -0.246 OA
ATOM      4  N   UNL d   1       2.701  -6.264  -0.329  0.00  0.00    -0.267 N 
ATOM      5  H   UNL d   1       3.646  -3.944  -0.213  0.00  0.00     0.164 HD
ATOM      6  H   UNL d   1       3.709  -6.274  -0.411  0.00  0.00     0.186 HD
ENDROOT
BRANCH   1   7
ATOM      7  C   UNL d   1       1.917  -2.645  -0.076  0.00  0.00     0.133 C 
BRANCH   7   8
ATOM      8  C   UNL d   1       2.846  -1.449   0.001  0.00  0.00     0.122 C 
BRANCH   8   9
ATOM      9  C   UNL d   1       2.187  -0.076   0.071  0.00  0.00     0.219 C 
ATOM     10  O   UNL d   1       0.964   0.066   0.123  0.00  0.00    -0.274 OA
ATOM     11  N   UNL d   1       2.986   1.048   0.052  0.00  0.00    -0.356 N 
ATOM     12  H   UNL d   1       2.454   1.903   0.195  0.00  0.00     0.162 HD
BRANCH  11  13
ATOM     13  C   UNL d   1       4.447   1.150   0.092  0.00  0.00     0.084 C 
ATOM     14  C   UNL d   1       5.143   0.068  -0.714  0.00  0.00     0.025 C 
ATOM     15  C   UNL d   1       6.534   0.548  -0.995  0.00  0.00     0.002 C 
ATOM     16  C   UNL d   1       6.413   2.059  -1.048  0.00  0.00     0.002 C 
ATOM     17  C   UNL d   1       4.986   2.410  -0.600  0.00  0.00     0.025 C 
ENDBRANCH  11  13
ENDBRANCH   8   9
ENDBRANCH   7   8
ENDBRANCH   1   7
BRANCH   4  18
ATOM     18  N   UNL d   1       2.010  -7.521  -0.261  0.00  0.00    -0.185 NA
ATOM     19  H   UNL d   1       1.145  -7.512  -0.806  0.00  0.00     0.154 HD
BRANCH  18  20
ATOM     20  C   UNL d   1       2.761  -8.701  -0.506  0.00  0.00     0.120 A 
ATOM     21  C   UNL d   1       3.882  -8.965   0.279  0.00  0.00     0.046 A 
ATOM     22  C   UNL d   1       4.556 -10.184   0.164  0.00  0.00     0.005 A 
ATOM     23  C   UNL d   1       4.116 -11.122  -0.754  0.00  0.00     0.019 A 
ATOM     24  C   UNL d   1       3.001 -10.796  -1.508  0.00  0.00     0.118 A 
ATOM     25  N   UNL d   1       2.314  -9.621  -1.396  0.00  0.00    -0.247 NA
ENDBRANCH  18  20
ENDBRANCH   4  18
TORSDOF 6
