REMARK  7 active torsions:
REMARK  status: ('A' for Active; 'I' for Inactive)
REMARK    1  A    between atoms: C_2  and  C_3 
REMARK       I    between atoms: C_3  and  N_5 
REMARK    2  A    between atoms: N_5  and  C_6 
REMARK    3  A    between atoms: C_9  and  N_10 
REMARK    4  A    between atoms: C_11  and  N_10 
REMARK    5  A    between atoms: C_11  and  C_13 
REMARK       I    between atoms: C_13  and  N_15 
REMARK    6  A    between atoms: N_15  and  C_16 
REMARK    7  A    between atoms: C_20  and  S_21 
ROOT
ATOM      1  N   UNL d   1       6.109   5.653  -5.551  0.00  0.00    -0.377 N 
ATOM      2  H   UNL d   1       6.904   6.283  -5.468  0.00  0.00     0.160 HD
ENDROOT
BRANCH   1   3
ATOM      3  C   UNL d   1       5.354   5.478  -4.388  0.00  0.00     0.029 A 
ATOM      4  C   UNL d   1       4.460   4.419  -4.191  0.00  0.00     0.031 A 
ATOM      5  C   UNL d   1       3.683   4.295  -3.026  0.00  0.00     0.032 A 
ATOM      6  C   UNL d   1       3.709   5.289  -2.045  0.00  0.00     0.040 A 
ATOM      7  C   UNL d   1       4.573   6.386  -2.226  0.00  0.00    -0.033 A 
ATOM      8  C   UNL d   1       5.381   6.458  -3.389  0.00  0.00     0.038 A 
ATOM      9  C   UNL d   1       4.738   7.465  -1.190  0.00  0.00     0.050 C 
BRANCH   6  10
ATOM     10  N   UNL d   1       2.905   5.118  -0.883  0.00  0.00    -0.327 N 
ATOM     11  C   UNL d   1       2.088   6.124  -0.394  0.00  0.00     0.221 C 
ATOM     12  O   UNL d   1       1.877   7.188  -0.985  0.00  0.00    -0.273 OA
ATOM     13  H   UNL d   1       2.660   4.167  -0.630  0.00  0.00     0.169 HD
BRANCH  11  14
ATOM     14  C   UNL d   1       1.373   5.826   0.912  0.00  0.00     0.098 C 
ATOM     15  C   UNL d   1       0.711   7.104   1.429  0.00  0.00     0.014 C 
ENDBRANCH  11  14
ENDBRANCH   6  10
ENDBRANCH   1   3
BRANCH   1  16
ATOM     16  C   UNL d   1       6.236   4.592  -6.570  0.00  0.00     0.170 C 
ATOM     17  C   UNL d   1       6.856   3.299  -6.012  0.00  0.00     0.042 C 
BRANCH  16  18
ATOM     18  C   UNL d   1       7.121   5.036  -7.762  0.00  0.00     0.244 C 
ATOM     19  O   UNL d   1       8.078   4.346  -8.124  0.00  0.00    -0.271 OA
ATOM     20  N   UNL d   1       6.769   6.224  -8.395  0.00  0.00    -0.325 N 
ATOM     21  H   UNL d   1       6.122   6.852  -7.931  0.00  0.00     0.169 HD
BRANCH  20  22
ATOM     22  C   UNL d   1       7.461   6.671  -9.549  0.00  0.00     0.036 A 
ATOM     23  C   UNL d   1       7.769   8.017  -9.733  0.00  0.00     0.029 A 
ATOM     24  C   UNL d   1       8.447   8.419 -10.891  0.00  0.00     0.004 A 
ATOM     25  C   UNL d   1       8.830   7.476 -11.854  0.00  0.00     0.018 A 
ATOM     26  C   UNL d   1       8.502   6.127 -11.698  0.00  0.00     0.002 A 
ATOM     27  C   UNL d   1       7.823   5.747 -10.540  0.00  0.00     0.048 A 
BRANCH  26  28
ATOM     28  S   UNL d   1       8.939   4.987 -13.007  0.00  0.00    -0.134 SA
ATOM     29  C   UNL d   1       8.243   3.404 -12.436  0.00  0.00     0.095 C 
ENDBRANCH  26  28
ENDBRANCH  20  22
ENDBRANCH  16  18
ENDBRANCH   1  16
TORSDOF 7
