@<TRIPOS>MOLECULE
*****
 36 37 0 0 0
SMALL
GASTEIGER

@<TRIPOS>ATOM
      1 CB          0.9895    0.0773    0.0266 C.3     1  ALA1       -0.0445
      2 CA          2.5254    0.0344    0.0232 C.3     1  ALA1        0.0438
      3 C           2.9927   -1.3586    0.4932 C.3     1  ALA1        0.0623
      4 O           2.4952   -1.6725    1.7911 O.3     1  ALA1       -0.3932
      5 N           3.0932    0.3904   -1.2813 N.am    1  ALA1       -0.3028
      6 C           4.4612    0.4901   -1.5133 C.2     0  UNK0        0.2996
      7 O           5.3354    0.2940   -0.6746 O.2     0  UNK0       -0.2652
      8 C           4.8656    0.8600   -2.9639 C.2     0  UNK0        0.3032
      9 O           3.9651    1.0517   -3.7770 O.2     0  UNK0       -0.2648
     10 N           6.2387    0.8765   -3.2102 N.am    0  UNK0       -0.2772
     11 C           6.8074    1.1846   -4.4799 C.ar    0  UNK0        0.0415
     12 C           6.2399    2.2199   -5.2344 C.ar    0  UNK0       -0.0399
     13 C           6.7427    2.5585   -6.4882 C.ar    0  UNK0       -0.0594
     14 C           7.8202    1.8580   -7.0180 C.ar    0  UNK0       -0.0539
     15 C           8.4393    0.8397   -6.2823 C.ar    0  UNK0       -0.0161
     16 C           9.5394    0.1616   -6.8368 C.ar    0  UNK0       -0.0540
     17 C          10.1685   -0.8666   -6.1410 C.ar    0  UNK0       -0.0612
     18 C           9.6984   -1.2319   -4.8861 C.ar    0  UNK0       -0.0611
     19 C           8.6024   -0.5679   -4.3207 C.ar    0  UNK0       -0.0523
     20 C           7.9475    0.4923   -4.9890 C.ar    0  UNK0        0.0033
     21 HB1         0.5903   -0.1519    1.0234 H       1  ALA1        0.0248
     22 HB2         0.5708   -0.6580   -0.6697 H       1  ALA1        0.0248
     23 HB3         0.6096    1.0638   -0.2557 H       1  ALA1        0.0248
     24 HA          2.8762    0.7857    0.7426 H       1  ALA1        0.0518
     25 H1          4.0820   -1.4294    0.5316 H       1  ALA1        0.0575
     26 H2          2.6390   -2.1274   -0.2023 H       1  ALA1        0.0575
     27 H           2.8611   -1.0133    2.4063 H       1  ALA1        0.2095
     28 H           2.4789    0.5778   -2.0724 H       1  ALA1        0.1495
     29 H           6.8380    0.4983   -2.4824 H       0  UNK0        0.1553
     30 H           5.4134    2.8027   -4.8367 H       0  UNK0        0.0636
     31 H           6.2906    3.3706   -7.0512 H       0  UNK0        0.0618
     32 H           8.1726    2.1179   -8.0150 H       0  UNK0        0.0624
     33 H           9.9180    0.4303   -7.8224 H       0  UNK0        0.0624
     34 H          11.0183   -1.3828   -6.5812 H       0  UNK0        0.0618
     35 H          10.1806   -2.0412   -4.3436 H       0  UNK0        0.0618
     36 H           8.2545   -0.9082   -3.3503 H       0  UNK0        0.0624
@<TRIPOS>BOND
     1     1     2    1
     2     2     3    1
     3     3     4    1
     4     2     5    1
     5     5     6   am
     6     6     7    2
     7     6     8    1
     8     8     9    2
     9     8    10   am
    10    10    11    1
    11    11    12   ar
    12    12    13   ar
    13    13    14   ar
    14    14    15   ar
    15    15    16   ar
    16    16    17   ar
    17    17    18   ar
    18    18    19   ar
    19    19    20   ar
    20    11    20   ar
    21    15    20   ar
    22     1    21    1
    23     1    22    1
    24     1    23    1
    25     2    24    1
    26     3    25    1
    27     3    26    1
    28     4    27    1
    29     5    28    1
    30    10    29    1
    31    12    30    1
    32    13    31    1
    33    14    32    1
    34    16    33    1
    35    17    34    1
    36    18    35    1
    37    19    36    1
