REMARK  9 active torsions:
REMARK  status: ('A' for Active; 'I' for Inactive)
REMARK    1  A    between atoms: C_2  and  C_3 
REMARK    2  A    between atoms: C_3  and  C_4 
REMARK    3  A    between atoms: C_4  and  CA_5 
REMARK    4  A    between atoms: CA_5  and  C_6 
REMARK    5  A    between atoms: CA_5  and  N_8 
REMARK    6  A    between atoms: C_6  and  O_7 
REMARK       I    between atoms: N_8  and  C_9 
REMARK    7  A    between atoms: C_9  and  C_11 
REMARK    8  A    between atoms: C_15  and  N_16 
REMARK       I    between atoms: N_16  and  C_17 
REMARK    9  A    between atoms: C_17  and  C_19 
ROOT
ATOM      1  C   UNL d   1       8.624   3.242  -2.510  0.00  0.00     0.034 A 
ATOM      2  C   UNL d   1       9.368   4.416  -2.511  0.00  0.00     0.017 A 
ATOM      3  C   UNL d   1      10.754   4.350  -2.692  0.00  0.00     0.003 A 
ATOM      4  C   UNL d   1      11.404   3.108  -2.827  0.00  0.00     0.029 A 
ATOM      5  C   UNL d   1      10.657   1.924  -2.826  0.00  0.00     0.035 A 
ATOM      6  C   UNL d   1       9.272   2.026  -2.659  0.00  0.00     0.046 A 
ENDROOT
BRANCH   1   7
ATOM      7  C   UNL d   1       7.146   3.252  -2.555  0.00  0.00     0.252 C 
ATOM      8  N   UNL d   1       6.460   2.305  -1.809  0.00  0.00    -0.350 N 
ATOM      9  H   UNL d   1       6.976   1.617  -1.269  0.00  0.00     0.163 HD
ATOM     10  O   UNL d   1       6.596   4.093  -3.269  0.00  0.00    -0.268 OA
BRANCH   8  11
ATOM     11  CA  UNL d   1       4.989   2.285  -1.763  0.00  0.00     0.108 C 
BRANCH  11  12
ATOM     12  C   UNL d   1       4.474   1.122  -0.876  0.00  0.00     0.027 C 
BRANCH  12  13
ATOM     13  C   UNL d   1       2.946   1.030  -0.843  0.00  0.00     0.002 C 
BRANCH  13  14
ATOM     14  C   UNL d   1       2.422  -0.079   0.052  0.00  0.00    -0.004 C 
ATOM     15  C   UNL d   1       0.899  -0.046   0.056  0.00  0.00     0.005 C 
ENDBRANCH  13  14
ENDBRANCH  12  13
ENDBRANCH  11  12
BRANCH  11  16
ATOM     16  C   UNL d   1       4.451   3.659  -1.279  0.00  0.00     0.189 C 
BRANCH  16  17
ATOM     17  O   UNL d   1       3.040   3.815  -1.361  0.00  0.00    -0.399 OA
ATOM     18  H   UNL d   1       2.759   3.493  -2.234  0.00  0.00     0.209 HD
ENDBRANCH  16  17
ENDBRANCH  11  16
ENDBRANCH   8  11
ENDBRANCH   1   7
BRANCH   5  19
ATOM     19  N   UNL d   1      11.280   0.659  -3.039  0.00  0.00    -0.327 N 
ATOM     20  C   UNL d   1      10.573  -0.536  -3.114  0.00  0.00     0.221 C 
ATOM     21  O   UNL d   1       9.354  -0.646  -2.987  0.00  0.00    -0.273 OA
ATOM     22  H   UNL d   1      12.284   0.650  -3.183  0.00  0.00     0.169 HD
BRANCH  20  23
ATOM     23  C   UNL d   1      11.372  -1.794  -3.364  0.00  0.00     0.098 C 
ATOM     24  C   UNL d   1      10.389  -2.972  -3.389  0.00  0.00     0.014 C 
ENDBRANCH  20  23
ENDBRANCH   5  19
TORSDOF 9
