@<TRIPOS>MOLECULE
*****
 65 69 0 0 0
SMALL
GASTEIGER

@<TRIPOS>ATOM
      1 C          -2.2743   -0.0687   -0.0123 C.3     1  UNL1       -0.0223
      2 C          -0.8041    0.1069   -0.0126 C.ar    1  UNL1        0.0413
      3 N           0.0541   -0.9632   -0.0008 N.ar    1  UNL1       -0.2807
      4 N           1.3493   -0.6167    0.0566 N.ar    1  UNL1       -0.1729
      5 C           1.3382    0.7209   -0.0187 C.ar    1  UNL1        0.1039
      6 C           2.5639    1.5076   -0.0020 C.ar    1  UNL1        0.0443
      7 C           2.7845    2.4088    1.0476 C.ar    1  UNL1       -0.0455
      8 C           3.9297    3.2074    1.0652 C.ar    1  UNL1       -0.0191
      9 C           4.8766    3.1051    0.0373 C.ar    1  UNL1        0.1243
     10 O           6.0577    3.8085   -0.0474 O.3     1  UNL1       -0.4866
     11 C           6.2654    4.7193    1.0211 C.3     1  UNL1        0.1291
     12 C           7.5421    5.5474    0.8313 C.3     1  UNL1        0.0032
     13 N           7.7295    6.6199    1.9303 N.4     1  UNL1        0.2398
     14 C           8.2591    7.9470    1.3409 C.3     1  UNL1       -0.0156
     15 C           8.3569    9.0585    2.4096 C.3     1  UNL1        0.0525
     16 N           7.1156    9.2061    3.1686 N.pl3   1  UNL1       -0.3198
     17 C           6.1985   10.2190    2.9303 C.ar    1  UNL1        0.0300
     18 C           5.6167   10.8806    4.0253 C.ar    1  UNL1       -0.0407
     19 C           4.6677   11.8971    3.8632 C.ar    1  UNL1       -0.0600
     20 C           4.2938   12.2995    2.5880 C.ar    1  UNL1       -0.0616
     21 C           4.8614   11.6718    1.4831 C.ar    1  UNL1       -0.0600
     22 C           5.8066   10.6440    1.6534 C.ar    1  UNL1       -0.0407
     23 C           6.6525    7.9860    3.8309 C.3     1  UNL1        0.0525
     24 C           6.4723    6.8666    2.7938 C.3     1  UNL1       -0.0156
     25 C           4.6469    2.2258   -1.0215 C.ar    1  UNL1        0.0222
     26 C           3.4946    1.4383   -1.0437 C.ar    1  UNL1        0.1295
     27 O           3.2499    0.6298   -2.1188 O.3     1  UNL1       -0.5060
     28 C           0.0024    1.2221   -0.0488 C.ar    1  UNL1        0.0302
     29 C          -0.4498    2.6005   -0.0566 C.ar    1  UNL1       -0.0141
     30 C          -0.0189    3.4778   -1.0592 C.ar    1  UNL1       -0.0539
     31 C          -0.3078    4.8408   -0.9695 C.ar    1  UNL1       -0.0612
     32 C          -1.0730    5.3216    0.0924 C.ar    1  UNL1       -0.0617
     33 C          -1.5279    4.4476    1.0788 C.ar    1  UNL1       -0.0612
     34 C          -1.2076    3.0914    1.0111 C.ar    1  UNL1       -0.0539
     35 H          -2.5558   -1.1257    0.0124 H       1  UNL1        0.0292
     36 H          -2.7101    0.3800   -0.9102 H       1  UNL1        0.0292
     37 H          -2.7157    0.4137    0.8653 H       1  UNL1        0.0292
     38 H          -0.1741   -1.9468   -0.0103 H       1  UNL1        0.1885
     39 H           2.0549    2.4994    1.8515 H       1  UNL1        0.0626
     40 H           4.0307    3.8910    1.9011 H       1  UNL1        0.0654
     41 H           6.3411    4.1632    1.9633 H       1  UNL1        0.0751
     42 H           5.4125    5.4038    1.0349 H       1  UNL1        0.0751
     43 H           7.5302    6.0491   -0.1428 H       1  UNL1        0.0848
     44 H           8.4311    4.9049    0.8567 H       1  UNL1        0.0848
     45 H           8.4610    6.2691    2.5643 H       1  UNL1        0.2036
     46 H           7.5688    8.2313    0.5420 H       1  UNL1        0.0830
     47 H           9.2483    7.7347    0.9199 H       1  UNL1        0.0830
     48 H           8.6793   10.0087    1.9718 H       1  UNL1        0.0516
     49 H           9.1348    8.7712    3.1300 H       1  UNL1        0.0516
     50 H           5.9381   10.6357    5.0352 H       1  UNL1        0.0636
     51 H           4.2311   12.3797    4.7347 H       1  UNL1        0.0618
     52 H           3.5724   13.1043    2.4584 H       1  UNL1        0.0618
     53 H           4.5623   11.9865    0.4847 H       1  UNL1        0.0618
     54 H           6.2022   10.1820    0.7561 H       1  UNL1        0.0636
     55 H           5.7084    8.1237    4.3712 H       1  UNL1        0.0516
     56 H           7.4026    7.6764    4.5677 H       1  UNL1        0.0516
     57 H           5.6699    7.1355    2.1016 H       1  UNL1        0.0830
     58 H           6.2530    5.9266    3.3098 H       1  UNL1        0.0830
     59 H           5.3659    2.1731   -1.8323 H       1  UNL1        0.0691
     60 H           4.0231    0.6045   -2.7018 H       1  UNL1        0.2922
     61 H           0.5591    3.1079   -1.9043 H       1  UNL1        0.0624
     62 H           0.0695    5.5260   -1.7238 H       1  UNL1        0.0618
     63 H          -1.3194    6.3787    0.1500 H       1  UNL1        0.0618
     64 H          -2.1189    4.8213    1.9104 H       1  UNL1        0.0618
     65 H          -1.5288    2.4258    1.8082 H       1  UNL1        0.0624
@<TRIPOS>UNITY_ATOM_ATTR
13 1
charge 1
@<TRIPOS>BOND
     1     1     2    1
     2     2     3   ar
     3     3     4   ar
     4     4     5   ar
     5     5     6    1
     6     6     7   ar
     7     7     8   ar
     8     8     9   ar
     9     9    10    1
    10    10    11    1
    11    11    12    1
    12    12    13    1
    13    13    14    1
    14    14    15    1
    15    15    16    1
    16    16    17    1
    17    17    18   ar
    18    18    19   ar
    19    19    20   ar
    20    20    21   ar
    21    21    22   ar
    22    17    22   ar
    23    16    23    1
    24    23    24    1
    25    13    24    1
    26     9    25   ar
    27    25    26   ar
    28     6    26   ar
    29    26    27    1
    30     5    28   ar
    31     2    28   ar
    32    28    29    1
    33    29    30   ar
    34    30    31   ar
    35    31    32   ar
    36    32    33   ar
    37    33    34   ar
    38    29    34   ar
    39     1    35    1
    40     1    36    1
    41     1    37    1
    42     3    38    1
    43     7    39    1
    44     8    40    1
    45    11    41    1
    46    11    42    1
    47    12    43    1
    48    12    44    1
    49    13    45    1
    50    14    46    1
    51    14    47    1
    52    15    48    1
    53    15    49    1
    54    18    50    1
    55    19    51    1
    56    20    52    1
    57    21    53    1
    58    22    54    1
    59    23    55    1
    60    23    56    1
    61    24    57    1
    62    24    58    1
    63    25    59    1
    64    27    60    1
    65    30    61    1
    66    31    62    1
    67    32    63    1
    68    33    64    1
    69    34    65    1
