@<TRIPOS>MOLECULE
*****
 45 46 0 0 0
SMALL
GASTEIGER

@<TRIPOS>ATOM
      1 C           0.7273   10.8972   -2.5681 C.3     1  UNL1       -0.0135
      2 S          -0.4821   10.7929   -3.9482 S.3     1  UNL1       -0.1285
      3 C          -0.9528    9.0639   -3.9626 C.ar    1  UNL1        0.0094
      4 C          -1.5770    8.4854   -5.0612 C.ar    1  UNL1       -0.0482
      5 C          -2.0390    7.1602   -4.9926 C.ar    1  UNL1       -0.0590
      6 C          -1.8192    6.3747   -3.8452 C.ar    1  UNL1       -0.0404
      7 C          -1.1729    6.9361   -2.7440 C.ar    1  UNL1        0.0345
      8 N          -0.9436    6.2052   -1.5448 N.am    1  UNL1       -0.2839
      9 C          -0.3166    6.7394   -0.4102 C.2     1  UNL1        0.2372
     10 O           0.1640    7.8692   -0.2947 O.2     1  UNL1       -0.2734
     11 C          -0.2176    5.8521    0.8203 C.3     1  UNL1        0.0948
     12 C           0.7158    4.6958    0.4928 C.3     1  UNL1       -0.0381
     13 N          -1.5230    5.3812    1.3045 N.pl3   1  UNL1       -0.3331
     14 C          -2.4989    6.2622    1.7747 C.ar    1  UNL1        0.0284
     15 C          -3.1666    6.0078    2.9719 C.ar    1  UNL1       -0.0406
     16 C          -4.2731    6.7778    3.3501 C.ar    1  UNL1       -0.0564
     17 C          -4.6860    7.8946    2.6008 C.ar    1  UNL1       -0.0382
     18 C          -5.8082    8.7135    3.1501 C.3     1  UNL1       -0.0390
     19 C          -4.0050    8.2049    1.4147 C.ar    1  UNL1        0.0411
     20 C          -4.3672    9.2834    0.4245 C.2     1  UNL1        0.2418
     21 N          -5.4426   10.0985    0.6208 N.am    1  UNL1       -0.3253
     22 O          -3.7173    9.4428   -0.6150 O.2     1  UNL1       -0.2704
     23 C          -2.9058    7.3958    1.0538 C.ar    1  UNL1       -0.0285
     24 C          -0.7765    8.2701   -2.8402 C.ar    1  UNL1       -0.0271
     25 H           1.0457   11.9368   -2.4549 H       1  UNL1        0.0344
     26 H           1.6080   10.2907   -2.7993 H       1  UNL1        0.0344
     27 H           0.3198   10.5951   -1.5969 H       1  UNL1        0.0344
     28 H          -1.7193    9.0636   -5.9700 H       1  UNL1        0.0629
     29 H          -2.5878    6.7500   -5.8382 H       1  UNL1        0.0618
     30 H          -2.1631    5.3439   -3.8465 H       1  UNL1        0.0636
     31 H          -1.3562    5.2808   -1.4729 H       1  UNL1        0.1549
     32 H           0.2714    6.4559    1.5999 H       1  UNL1        0.0591
     33 H           0.2747    4.0187   -0.2446 H       1  UNL1        0.0252
     34 H           0.9558    4.1202    1.3910 H       1  UNL1        0.0252
     35 H           1.6568    5.0747    0.0726 H       1  UNL1        0.0252
     36 H          -1.5396    4.4479    1.7000 H       1  UNL1        0.1468
     37 H          -2.8413    5.2110    3.6366 H       1  UNL1        0.0636
     38 H          -4.8304    6.4933    4.2416 H       1  UNL1        0.0621
     39 H          -6.1486    8.3628    4.1264 H       1  UNL1        0.0278
     40 H          -6.6721    8.6652    2.4811 H       1  UNL1        0.0278
     41 H          -5.4560    9.7416    3.2952 H       1  UNL1        0.0278
     42 H          -6.0476   10.1183    1.4187 H       1  UNL1        0.1453
     43 H          -5.6400   10.7856   -0.0935 H       1  UNL1        0.1453
     44 H          -2.4130    7.6553    0.1258 H       1  UNL1        0.0644
     45 H          -0.3392    8.7521   -1.9928 H       1  UNL1        0.0647
@<TRIPOS>BOND
     1     1     2    1
     2     2     3    1
     3     3     4   ar
     4     4     5   ar
     5     5     6   ar
     6     6     7   ar
     7     7     8    1
     8     8     9   am
     9     9    10    2
    10    11    13    1
    11    13    14    1
    12    14    15   ar
    13    15    16   ar
    14    16    17   ar
    15    17    18    1
    16    17    19   ar
    17    19    20    1
    18    20    21   am
    19    20    22    2
    20    19    23   ar
    21    14    23   ar
    22     7    24   ar
    23     3    24   ar
    24    11    12    1
    25    11     9    1
    26     1    25    1
    27     1    26    1
    28     1    27    1
    29     4    28    1
    30     5    29    1
    31     6    30    1
    32     8    31    1
    33    11    32    1
    34    12    33    1
    35    12    34    1
    36    12    35    1
    37    13    36    1
    38    15    37    1
    39    16    38    1
    40    18    39    1
    41    18    40    1
    42    18    41    1
    43    21    42    1
    44    21    43    1
    45    23    44    1
    46    24    45    1
