@<TRIPOS>MOLECULE
*****
 68 70 0 0 0
SMALL
GASTEIGER

@<TRIPOS>ATOM
      1 C           4.8909    7.0803    2.7681 C.3     1  UNL1       -0.0639
      2 C           4.7102    5.5920    2.7663 C.3     1  UNL1       -0.0400
      3 C           4.8748    4.8402    1.4698 C.3     1  UNL1        0.0156
      4 N           4.8582    3.3420    1.5211 N.am    1  UNL1       -0.2844
      5 C           4.6525    2.5432    2.6527 C.2     1  UNL1        0.2336
      6 O           4.7282    1.3094    2.6306 O.2     1  UNL1       -0.2739
      7 C           4.3321    3.1816    3.9953 C.3     1  UNL1        0.0886
      8 N           4.0309    2.2750    5.0576 N.am    1  UNL1       -0.3027
      9 C           3.7847    2.8058    6.2971 C.2     1  UNL1        0.2445
     10 O           3.7851    4.0175    6.5399 O.2     1  UNL1       -0.2702
     11 C           3.5282    1.8404    7.3669 C.ar    1  UNL1        0.0367
     12 C           2.5689    2.1333    8.3381 C.ar    1  UNL1       -0.0496
     13 C           2.4245    1.2798    9.4274 C.ar    1  UNL1       -0.0610
     14 C           3.1920    0.1154    9.5069 C.ar    1  UNL1       -0.0617
     15 C           4.1348   -0.1808    8.5215 C.ar    1  UNL1       -0.0610
     16 C           4.3130    0.6873    7.4515 C.ar    1  UNL1       -0.0496
     17 C           5.2529    2.6655    0.2339 C.3     1  UNL1        0.1342
     18 C           4.2588    1.5827   -0.2381 C.2     1  UNL1        0.2386
     19 O           3.5569    1.8202   -1.2238 O.2     1  UNL1       -0.2734
     20 N           4.1991    0.3603    0.4329 N.am    1  UNL1       -0.3106
     21 C           2.9757   -0.4468    0.4854 C.3     1  UNL1        0.0232
     22 C           1.7611    0.4881    0.4965 C.3     1  UNL1       -0.0345
     23 C           0.4240   -0.1501    0.2413 C.3     1  UNL1       -0.0514
     24 C           0.5053   -1.0329   -0.9976 C.3     1  UNL1       -0.0529
     25 C           1.5709   -2.1083   -0.8241 C.3     1  UNL1       -0.0514
     26 C           2.9560   -1.4957   -0.6268 C.3     1  UNL1       -0.0345
     27 C           6.7353    2.3508    0.0983 C.ar    1  UNL1        0.0648
     28 C           7.2880    1.0657    0.0734 C.ar    1  UNL1        0.1292
     29 O           6.6251   -0.1028   -0.1701 O.3     1  UNL1       -0.5062
     30 C           8.6554    0.8702    0.2403 C.ar    1  UNL1        0.0219
     31 C           9.5102    1.9582    0.3024 C.ar    1  UNL1        0.1238
     32 O          10.8576    1.7881    0.3791 O.3     1  UNL1       -0.5065
     33 C           9.0245    3.2453    0.2031 C.ar    1  UNL1        0.0219
     34 C           7.6568    3.4247    0.0435 C.ar    1  UNL1        0.1292
     35 O           7.2281    4.6832   -0.2882 O.3     1  UNL1       -0.5062
     36 H           4.7374    7.4149    3.8021 H       1  UNL1        0.0230
     37 H           4.1521    7.5578    2.1270 H       1  UNL1        0.0230
     38 H           5.9046    7.3520    2.4686 H       1  UNL1        0.0230
     39 H           3.7031    5.4243    3.1351 H       1  UNL1        0.0278
     40 H           5.4948    5.2462    3.4381 H       1  UNL1        0.0278
     41 H           5.8547    5.1525    1.1415 H       1  UNL1        0.0465
     42 H           4.1613    5.1764    0.7078 H       1  UNL1        0.0465
     43 H           3.4392    3.7994    3.9260 H       1  UNL1        0.0558
     44 H           5.2274    3.6919    4.3484 H       1  UNL1        0.0558
     45 H           3.9666    1.2884    4.8378 H       1  UNL1        0.1495
     46 H           1.9511    3.0248    8.2501 H       1  UNL1        0.0625
     47 H           1.7294    1.5305   10.2241 H       1  UNL1        0.0618
     48 H           3.0619   -0.5605   10.3475 H       1  UNL1        0.0618
     49 H           4.7521   -1.0707    8.6008 H       1  UNL1        0.0618
     50 H           5.0837    0.4855    6.7127 H       1  UNL1        0.0625
     51 H           5.0742    3.4272   -0.5414 H       1  UNL1        0.0650
     52 H           4.8464    0.2159    1.2177 H       1  UNL1        0.1490
     53 H           2.9928   -0.9923    1.4444 H       1  UNL1        0.0498
     54 H           1.8212    1.1826   -0.3351 H       1  UNL1        0.0283
     55 H           1.7710    1.1099    1.3988 H       1  UNL1        0.0283
     56 H          -0.2928    0.6608    0.0610 H       1  UNL1        0.0266
     57 H           0.0923   -0.7076    1.1196 H       1  UNL1        0.0266
     58 H           0.7511   -0.4241   -1.8797 H       1  UNL1        0.0265
     59 H          -0.4726   -1.4843   -1.1817 H       1  UNL1        0.0265
     60 H           1.5859   -2.7599   -1.7041 H       1  UNL1        0.0266
     61 H           1.3127   -2.7332    0.0393 H       1  UNL1        0.0266
     62 H           3.2916   -1.0377   -1.5635 H       1  UNL1        0.0283
     63 H           3.6777   -2.2955   -0.4054 H       1  UNL1        0.0283
     64 H           5.7683    0.0438   -0.6127 H       1  UNL1        0.2922
     65 H           9.0227   -0.1480    0.3080 H       1  UNL1        0.0691
     66 H          11.0410    0.8427    0.2461 H       1  UNL1        0.2921
     67 H           9.7099    4.0854    0.2153 H       1  UNL1        0.0691
     68 H           7.8947    5.3378   -0.0146 H       1  UNL1        0.2922
@<TRIPOS>BOND
     1     1     2    1
     2     2     3    1
     3     3     4    1
     4     4     5   am
     5     5     6    2
     6     5     7    1
     7     7     8    1
     8     8     9   am
     9     9    10    2
    10     9    11    1
    11    11    12   ar
    12    12    13   ar
    13    13    14   ar
    14    14    15   ar
    15    15    16   ar
    16    11    16   ar
    17    18    19    2
    18    18    20   am
    19    20    21    1
    20    21    22    1
    21    22    23    1
    22    23    24    1
    23    24    25    1
    24    25    26    1
    25    21    26    1
    26    17    27    1
    27    27    28   ar
    28    28    29    1
    29    28    30   ar
    30    30    31   ar
    31    31    32    1
    32    31    33   ar
    33    33    34   ar
    34    27    34   ar
    35    34    35    1
    36    17    18    1
    37    17     4    1
    38     1    36    1
    39     1    37    1
    40     1    38    1
    41     2    39    1
    42     2    40    1
    43     3    41    1
    44     3    42    1
    45     7    43    1
    46     7    44    1
    47     8    45    1
    48    12    46    1
    49    13    47    1
    50    14    48    1
    51    15    49    1
    52    16    50    1
    53    17    51    1
    54    20    52    1
    55    21    53    1
    56    22    54    1
    57    22    55    1
    58    23    56    1
    59    23    57    1
    60    24    58    1
    61    24    59    1
    62    25    60    1
    63    25    61    1
    64    26    62    1
    65    26    63    1
    66    29    64    1
    67    30    65    1
    68    32    66    1
    69    33    67    1
    70    35    68    1
