REMARK  5 active torsions:
REMARK  status: ('A' for Active; 'I' for Inactive)
REMARK       I    between atoms: C_2  and  N_3 
REMARK    1  A    between atoms: C_2  and  C_16 
REMARK    2  A    between atoms: N_3  and  C_4 
REMARK    3  A    between atoms: C_4  and  C_5 
REMARK    4  A    between atoms: C_5  and  O_6 
REMARK    5  A    between atoms: C_22  and  N_23 
ROOT
ATOM      1  O   UNL d   1       1.160   0.204  -0.226  0.00  0.00    -0.266 OA
ATOM      2  C   UNL d   1       2.366   0.203  -0.090  0.00  0.00     0.268 C 
ATOM      3  N   UNL d   1       2.975  -0.270   1.096  0.00  0.00    -0.352 N 
ATOM      4  H   UNL d   1       3.971  -0.270   1.138  0.00  0.00     0.162 HD
ENDROOT
BRANCH   2   5
ATOM      5  C   UNL d   1       3.355   0.651  -1.133  0.00  0.00     0.102 C 
ATOM      6  C   UNL d   1       4.709   0.430  -1.039  0.00  0.00     0.049 C 
ATOM      7  C   UNL d   1       5.274   0.559  -2.307  0.00  0.00    -0.005 C 
ATOM      8  C   UNL d   1       6.436  -0.013  -2.825  0.00  0.00     0.014 C 
ATOM      9  C   UNL d   1       4.492   1.439  -3.056  0.00  0.00     0.076 C 
ATOM     10  C   UNL d   1       6.806   0.236  -4.125  0.00  0.00     0.003 C 
ATOM     11  C   UNL d   1       6.287   1.359  -4.732  0.00  0.00     0.038 C 
ATOM     12  C   UNL d   1       5.151   2.056  -4.208  0.00  0.00     0.130 C 
ATOM     13  N   UNL d   1       3.212   1.278  -2.422  0.00  0.00    -0.349 N 
ATOM     14  H   UNL d   1       2.315   1.329  -2.899  0.00  0.00     0.166 HD
BRANCH  12  15
ATOM     15  N   UNL d   1       5.077   3.460  -4.730  0.00  0.00    -0.113 N 
ATOM     16  O   UNL d   1       5.857   3.779  -5.652  0.00  0.00    -0.532 OA
ATOM     17  O   UNL d   1       4.319   4.258  -4.171  0.00  0.00    -0.532 OA
ENDBRANCH  12  15
ENDBRANCH   2   5
BRANCH   3  18
ATOM     18  C   UNL d   1       2.306  -0.632   2.369  0.00  0.00     0.165 C 
BRANCH  18  19
ATOM     19  C   UNL d   1       3.298  -1.055   3.535  0.00  0.00     0.101 C 
ATOM     20  C   UNL d   1       3.870  -2.471   3.305  0.00  0.00     0.045 C 
ATOM     21  C   UNL d   1       2.805  -3.529   3.587  0.00  0.00     0.008 C 
ATOM     22  C   UNL d   1       2.474  -3.534   5.075  0.00  0.00     0.039 C 
ATOM     23  C   UNL d   1       2.217  -2.145   5.608  0.00  0.00    -0.049 A 
ATOM     24  C   UNL d   1       1.602  -2.021   6.866  0.00  0.00     0.007 A 
ATOM     25  C   UNL d   1       2.618  -0.986   4.907  0.00  0.00    -0.016 A 
ATOM     26  C   UNL d   1       1.368  -0.766   7.424  0.00  0.00     0.001 A 
ATOM     27  C   UNL d   1       1.760   0.380   6.741  0.00  0.00     0.001 A 
ATOM     28  C   UNL d   1       2.382   0.270   5.498  0.00  0.00     0.011 A 
BRANCH  19  29
ATOM     29  O   UNL d   1       4.402  -0.133   3.598  0.00  0.00    -0.383 OA
ATOM     30  H   UNL d   1       4.921  -0.193   2.786  0.00  0.00     0.211 HD
ENDBRANCH  19  29
ENDBRANCH  18  19
ENDBRANCH   3  18
TORSDOF 5
