@<TRIPOS>MOLECULE
*****
 55 58 0 0 0
SMALL
GASTEIGER

@<TRIPOS>ATOM
      1 C           0.9695   -0.0927    0.0974 C.3     1  UNL1        0.0790
      2 O           2.3919   -0.0535    0.1122 O.3     1  UNL1       -0.4914
      3 C           2.9788    1.1880    0.1096 C.ar    1  UNL1        0.1619
      4 C           4.3788    1.1373    0.0918 C.ar    1  UNL1       -0.0163
      5 C           5.1334    2.3113    0.0708 C.ar    1  UNL1       -0.0575
      6 C           4.4927    3.5570    0.0689 C.ar    1  UNL1       -0.0494
      7 C           3.0916    3.6299    0.0984 C.ar    1  UNL1        0.0396
      8 C           2.4197    4.9685    0.0974 C.2     1  UNL1        0.0564
      9 N           1.1232    5.0472    0.1219 N.2     1  UNL1       -0.1873
     10 N           0.5154    6.2767    0.0996 N.am    1  UNL1       -0.2017
     11 C          -0.8778    6.3528    0.1943 C.2     1  UNL1        0.2810
     12 O          -1.5979    5.3580    0.3358 O.2     1  UNL1       -0.2668
     13 C          -1.4438    7.6804    0.1521 C.ar    1  UNL1        0.1224
     14 C          -1.1610    8.7793   -0.6364 C.ar    1  UNL1       -0.0041
     15 C          -2.0860    9.7930   -0.2615 C.ar    1  UNL1        0.0932
     16 C          -2.1849   11.1358   -0.8288 C.ar    1  UNL1        0.0023
     17 C          -2.4056   11.3052   -2.2012 C.ar    1  UNL1       -0.0491
     18 C          -2.4371   12.5849   -2.7687 C.ar    1  UNL1       -0.0193
     19 C          -2.2455   13.7142   -1.9736 C.ar    1  UNL1        0.1210
     20 O          -2.2500   15.0079   -2.4189 O.3     1  UNL1       -0.4873
     21 C          -2.5194   15.2089   -3.8099 C.3     1  UNL1        0.1160
     22 C          -2.5765   16.6948   -4.0574 C.ar    1  UNL1        0.0079
     23 C          -1.3711   17.4160   -4.1491 C.ar    1  UNL1       -0.0540
     24 C          -1.3781   18.8096   -4.2250 C.ar    1  UNL1       -0.0613
     25 C          -2.5871   19.4975   -4.2798 C.ar    1  UNL1       -0.0604
     26 C          -3.7894   18.7943   -4.2287 C.ar    1  UNL1       -0.0430
     27 C          -3.7872   17.4022   -4.1102 C.ar    1  UNL1        0.0474
     28 CL         -5.3230   16.6119   -4.0426 Cl      1  UNL1       -0.0831
     29 C          -2.0238   13.5498   -0.6031 C.ar    1  UNL1       -0.0193
     30 C          -2.0012   12.2699   -0.0304 C.ar    1  UNL1       -0.0491
     31 N          -2.8874    9.3574    0.7200 N.ar    1  UNL1       -0.1732
     32 N          -2.5275    8.0697    0.8994 N.ar    1  UNL1       -0.2719
     33 C           2.3379    2.4406    0.1218 C.ar    1  UNL1        0.1672
     34 O           0.9676    2.4936    0.1604 O.3     1  UNL1       -0.5029
     35 H           0.6508   -1.1377    0.0843 H       1  UNL1        0.0660
     36 H           0.5736    0.3738   -0.8118 H       1  UNL1        0.0660
     37 H           0.5590    0.3530    1.0099 H       1  UNL1        0.0660
     38 H           4.8818    0.1704    0.0931 H       1  UNL1        0.0655
     39 H           6.2203    2.2452    0.0543 H       1  UNL1        0.0619
     40 H           5.1049    4.4541    0.0454 H       1  UNL1        0.0625
     41 H           3.0667    5.8619    0.0727 H       1  UNL1        0.0852
     42 H           1.0783    7.1199    0.0955 H       1  UNL1        0.1776
     43 H          -0.4145    8.8459   -1.4124 H       1  UNL1        0.0662
     44 H          -2.5645   10.4439   -2.8455 H       1  UNL1        0.0625
     45 H          -2.6127   12.6597   -3.8364 H       1  UNL1        0.0654
     46 H          -3.4609   14.7294   -4.0950 H       1  UNL1        0.0748
     47 H          -1.7171   14.7703   -4.4169 H       1  UNL1        0.0748
     48 H          -0.4165   16.8921   -4.1371 H       1  UNL1        0.0622
     49 H          -0.4400   19.3596   -4.2214 H       1  UNL1        0.0618
     50 H          -2.5955   20.5811   -4.3598 H       1  UNL1        0.0618
     51 H          -4.7305   19.3373   -4.2615 H       1  UNL1        0.0632
     52 H          -1.8649   14.4232    0.0262 H       1  UNL1        0.0654
     53 H          -1.8238   12.1639    1.0373 H       1  UNL1        0.0625
     54 H          -3.0468    7.5130    1.5739 H       1  UNL1        0.1891
     55 H           0.6659    3.4289    0.1709 H       1  UNL1        0.2923
@<TRIPOS>BOND
     1     1     2    1
     2     2     3    1
     3     3     4   ar
     4     4     5   ar
     5     5     6   ar
     6     6     7   ar
     7     7     8    1
     8     8     9    2
     9     9    10    1
    10    10    11   am
    11    11    12    2
    12    11    13    1
    13    13    14   ar
    14    14    15   ar
    15    15    16    1
    16    16    17   ar
    17    17    18   ar
    18    18    19   ar
    19    19    20    1
    20    20    21    1
    21    21    22    1
    22    22    23   ar
    23    23    24   ar
    24    24    25   ar
    25    25    26   ar
    26    26    27   ar
    27    22    27   ar
    28    27    28    1
    29    19    29   ar
    30    29    30   ar
    31    16    30   ar
    32    15    31   ar
    33    31    32   ar
    34    13    32   ar
    35     7    33   ar
    36     3    33   ar
    37    33    34    1
    38     1    35    1
    39     1    36    1
    40     1    37    1
    41     4    38    1
    42     5    39    1
    43     6    40    1
    44     8    41    1
    45    10    42    1
    46    14    43    1
    47    17    44    1
    48    18    45    1
    49    21    46    1
    50    21    47    1
    51    23    48    1
    52    24    49    1
    53    25    50    1
    54    26    51    1
    55    29    52    1
    56    30    53    1
    57    32    54    1
    58    34    55    1
