REMARK  5 active torsions:
REMARK  status: ('A' for Active; 'I' for Inactive)
REMARK    1  A    between atoms: S_2  and  C_3 
REMARK    2  A    between atoms: C_8  and  N_9 
REMARK       I    between atoms: N_9  and  C_10 
REMARK    3  A    between atoms: C_10  and  C_12 
REMARK    4  A    between atoms: C_12  and  N_14 
REMARK       I    between atoms: N_14  and  C_15 
REMARK    5  A    between atoms: C_15  and  C_17 
ROOT
ATOM      1  C   UNL d   1       2.633   2.998  -2.564  0.00  0.00     0.173 C 
ATOM      2  C   UNL d   1       3.810   3.921  -2.817  0.00  0.00     0.042 C 
ENDROOT
BRANCH   1   3
ATOM      3  C   UNL d   1       2.986   2.174  -1.315  0.00  0.00     0.244 C 
ATOM      4  N   UNL d   1       2.897   2.781  -0.068  0.00  0.00    -0.324 N 
ATOM      5  H   UNL d   1       2.854   3.796  -0.050  0.00  0.00     0.169 HD
ATOM      6  O   UNL d   1       3.424   1.040  -1.528  0.00  0.00    -0.271 OA
BRANCH   4   7
ATOM      7  C   UNL d   1       3.148   2.138   1.196  0.00  0.00     0.051 C 
ATOM      8  C   UNL d   1       3.365   2.980   2.318  0.00  0.00     0.031 C 
ATOM      9  C   UNL d   1       3.656   2.450   3.590  0.00  0.00     0.002 C 
ATOM     10  C   UNL d   1       3.800   1.082   3.757  0.00  0.00     0.002 C 
ATOM     11  C   UNL d   1       3.633   0.246   2.665  0.00  0.00     0.021 C 
ATOM     12  C   UNL d   1       3.198   0.738   1.423  0.00  0.00     0.026 C 
BRANCH  12  13
ATOM     13  S   UNL d   1       2.601  -0.630   0.415  0.00  0.00    -0.132 SA
ATOM     14  C   UNL d   1       0.909  -0.091   0.072  0.00  0.00     0.095 C 
ENDBRANCH  12  13
ENDBRANCH   4   7
ENDBRANCH   1   3
BRANCH   1  15
ATOM     15  N   UNL d   1       2.490   2.018  -3.660  0.00  0.00    -0.344 N 
ATOM     16  C   UNL d   1       2.255   2.334  -4.971  0.00  0.00     0.254 C 
ATOM     17  O   UNL d   1       2.152   3.490  -5.378  0.00  0.00    -0.268 OA
ATOM     18  H   UNL d   1       2.613   1.042  -3.385  0.00  0.00     0.163 HD
BRANCH  16  19
ATOM     19  C   UNL d   1       2.135   1.215  -5.945  0.00  0.00     0.053 A 
ATOM     20  C   UNL d   1       2.738   1.378  -7.208  0.00  0.00     0.019 A 
ATOM     21  C   UNL d   1       2.509   0.452  -8.232  0.00  0.00     0.001 A 
ATOM     22  C   UNL d   1       1.720  -0.669  -7.989  0.00  0.00     0.002 A 
ATOM     23  C   UNL d   1       1.139  -0.850  -6.734  0.00  0.00     0.025 A 
ATOM     24  C   UNL d   1       1.338   0.088  -5.712  0.00  0.00     0.049 A 
ATOM     25 CL   UNL d   1       0.509  -0.201  -4.223  0.00  0.00    -0.083 Cl
ENDBRANCH  16  19
ENDBRANCH   1  15
TORSDOF 5
