@<TRIPOS>MOLECULE
*****
 60 61 0 0 0
SMALL
GASTEIGER

@<TRIPOS>ATOM
      1 C           0.9128    0.0984    0.1560 C.3     1  UNL1       -0.0652
      2 C           2.4131    0.2342    0.3147 C.3     1  UNL1       -0.0528
      3 C           2.9875    1.0273   -0.8456 C.3     1  UNL1       -0.0189
      4 C           4.4895    1.2344   -0.6924 C.3     1  UNL1        0.0896
      5 O           4.9069    1.7704   -1.9506 O.3     1  UNL1       -0.4912
      6 C           6.2457    1.7600   -2.2059 C.ar    1  UNL1        0.1326
      7 C           6.8005    3.0219   -2.5358 C.ar    1  UNL1       -0.0192
      8 C           8.1368    3.1580   -2.9266 C.ar    1  UNL1       -0.0583
      9 C           8.9566    2.0426   -2.9164 C.ar    1  UNL1       -0.0608
     10 C           8.4062    0.7907   -2.6054 C.ar    1  UNL1       -0.0461
     11 C           7.0290    0.6070   -2.2947 C.ar    1  UNL1        0.0786
     12 C           6.5853   -0.8225   -2.0506 C.2     1  UNL1        0.2531
     13 O           7.5056   -1.6232   -1.8856 O.2     1  UNL1       -0.2697
     14 N           5.2144   -1.2140   -2.0437 N.am    1  UNL1       -0.2626
     15 C           4.6713   -2.3664   -1.4121 C.2     1  UNL1        0.1533
     16 S           5.5849   -3.6717   -0.8582 S.2     1  UNL1       -0.0170
     17 N           3.2670   -2.3885   -1.2487 N.am    1  UNL1       -0.2453
     18 N           2.6615   -3.4633   -0.4612 N.am    1  UNL1       -0.2311
     19 C           1.3014   -3.5341   -0.1902 C.2     1  UNL1        0.2601
     20 O           0.4998   -2.6115   -0.3791 O.2     1  UNL1       -0.2687
     21 C           0.7559   -4.8097    0.3563 C.ar    1  UNL1        0.0383
     22 C          -0.5475   -5.2487    0.0426 C.ar    1  UNL1       -0.0478
     23 C          -1.1009   -6.4072    0.6446 C.ar    1  UNL1       -0.0398
     24 C          -0.3311   -7.1737    1.5275 C.ar    1  UNL1        0.0334
     25 N          -0.8161   -8.4136    2.0538 N.am    1  UNL1       -0.2855
     26 C          -0.0514   -9.2599    2.8531 C.2     1  UNL1        0.2172
     27 O           1.0951   -9.0209    3.2300 O.2     1  UNL1       -0.2755
     28 C          -0.6792  -10.5772    3.2754 C.3     1  UNL1        0.0240
     29 C           0.3318  -11.3209    4.1747 C.3     1  UNL1       -0.0476
     30 C          -0.1797  -12.6542    4.6705 C.3     1  UNL1       -0.0648
     31 C           0.9435   -6.6855    1.8469 C.ar    1  UNL1       -0.0398
     32 C           1.4901   -5.5355    1.2767 C.ar    1  UNL1       -0.0478
     33 H           0.5145   -0.5506    0.9406 H       1  UNL1        0.0230
     34 H           0.6406   -0.3143   -0.8237 H       1  UNL1        0.0230
     35 H           0.4321    1.0733    0.2409 H       1  UNL1        0.0230
     36 H           2.8741   -0.7513    0.4023 H       1  UNL1        0.0264
     37 H           2.6533    0.7267    1.2574 H       1  UNL1        0.0264
     38 H           2.5034    2.0072   -0.9097 H       1  UNL1        0.0298
     39 H           2.7536    0.5433   -1.8084 H       1  UNL1        0.0298
     40 H           4.9651    0.2902   -0.4295 H       1  UNL1        0.0696
     41 H           4.7350    1.9085    0.1297 H       1  UNL1        0.0696
     42 H           6.1863    3.9205   -2.4929 H       1  UNL1        0.0654
     43 H           8.5357    4.1229   -3.2384 H       1  UNL1        0.0619
     44 H          10.0148    2.1365   -3.1592 H       1  UNL1        0.0618
     45 H           9.0811   -0.0658   -2.6261 H       1  UNL1        0.0626
     46 H           4.5688   -0.5063   -2.3680 H       1  UNL1        0.1569
     47 H           2.6337   -1.6126   -1.4296 H       1  UNL1        0.1718
     48 H           3.2649   -4.2786   -0.3498 H       1  UNL1        0.1731
     49 H          -1.1407   -4.6863   -0.6789 H       1  UNL1        0.0626
     50 H          -2.1312   -6.6723    0.4126 H       1  UNL1        0.0636
     51 H          -1.7338   -8.7242    1.7540 H       1  UNL1        0.1548
     52 H          -0.9018  -11.1807    2.3894 H       1  UNL1        0.0358
     53 H          -1.6034  -10.3870    3.8292 H       1  UNL1        0.0358
     54 H           0.5892  -10.6960    5.0415 H       1  UNL1        0.0267
     55 H           1.2709  -11.4848    3.6273 H       1  UNL1        0.0267
     56 H          -1.0883  -12.5215    5.2631 H       1  UNL1        0.0230
     57 H           0.5752  -13.1332    5.3039 H       1  UNL1        0.0230
     58 H          -0.3939  -13.3210    3.8314 H       1  UNL1        0.0230
     59 H           1.5807   -7.1659    2.5759 H       1  UNL1        0.0636
     60 H           2.4754   -5.2245    1.6058 H       1  UNL1        0.0626
@<TRIPOS>BOND
     1     1     2    1
     2     2     3    1
     3     3     4    1
     4     4     5    1
     5     5     6    1
     6     6     7   ar
     7     7     8   ar
     8     8     9   ar
     9     9    10   ar
    10    10    11   ar
    11     6    11   ar
    12    11    12    1
    13    12    13    2
    14    12    14   am
    15    14    15    1
    16    15    16    2
    17    15    17    1
    18    17    18    1
    19    18    19   am
    20    19    20    2
    21    19    21    1
    22    21    22   ar
    23    22    23   ar
    24    23    24   ar
    25    24    25    1
    26    25    26   am
    27    26    27    2
    28    26    28    1
    29    28    29    1
    30    29    30    1
    31    24    31   ar
    32    31    32   ar
    33    21    32   ar
    34     1    33    1
    35     1    34    1
    36     1    35    1
    37     2    36    1
    38     2    37    1
    39     3    38    1
    40     3    39    1
    41     4    40    1
    42     4    41    1
    43     7    42    1
    44     8    43    1
    45     9    44    1
    46    10    45    1
    47    14    46    1
    48    17    47    1
    49    18    48    1
    50    22    49    1
    51    23    50    1
    52    25    51    1
    53    28    52    1
    54    28    53    1
    55    29    54    1
    56    29    55    1
    57    30    56    1
    58    30    57    1
    59    30    58    1
    60    31    59    1
    61    32    60    1
