REMARK  5 active torsions:
REMARK  status: ('A' for Active; 'I' for Inactive)
REMARK    1  A    between atoms: C_6  and  C_7 
REMARK    2  A    between atoms: C_10  and  N_11 
REMARK    3  A    between atoms: N_11  and  C_12 
REMARK    4  A    between atoms: C_16  and  C_17 
REMARK       I    between atoms: C_17  and  N_19 
REMARK    5  A    between atoms: N_19  and  C_20 
ROOT
ATOM      1  N   UNL d   1      -3.878   6.088   0.142  0.00  0.00    -0.188 N 
ATOM      2  H   UNL d   1      -3.790   6.646  -0.691  0.00  0.00     0.184 HD
ENDROOT
BRANCH   1   3
ATOM      3  C   UNL d   1      -3.175   4.887   0.094  0.00  0.00     0.726 A 
ATOM      4  N   UNL d   1      -2.363   4.662  -0.952  0.00  0.00    -0.074 NA
ATOM      5  C   UNL d   1      -1.712   3.472  -0.968  0.00  0.00     0.150 A 
ATOM      6  C   UNL d   1      -1.838   2.494   0.001  0.00  0.00     0.010 A 
ATOM      7  C   UNL d   1      -2.705   2.829   1.014  0.00  0.00     0.150 A 
ATOM      8  N   UNL d   1      -3.365   3.995   1.081  0.00  0.00    -0.074 NA
BRANCH   6   9
ATOM      9  C   UNL d   1      -1.117   1.226  -0.017  0.00  0.00    -0.023 A 
ATOM     10  C   UNL d   1      -1.808   0.005  -0.011  0.00  0.00     0.012 A 
ATOM     11  C   UNL d   1      -1.116  -1.206  -0.001  0.00  0.00     0.001 A 
ATOM     12  C   UNL d   1       0.278  -1.213   0.002  0.00  0.00     0.007 A 
ATOM     13  C   UNL d   1       0.990  -0.011  -0.005  0.00  0.00    -0.061 A 
ATOM     14  C   UNL d   1       2.490  -0.000  -0.014  0.00  0.00     0.048 C 
ATOM     15  C   UNL d   1       0.287   1.201  -0.012  0.00  0.00     0.019 A 
ENDBRANCH   6   9
ENDBRANCH   1   3
BRANCH   1  16
ATOM     16  C   UNL d   1      -4.715   6.515   1.181  0.00  0.00     0.050 A 
ATOM     17  C   UNL d   1      -4.239   6.542   2.498  0.00  0.00     0.030 A 
ATOM     18  C   UNL d   1      -5.071   6.894   3.556  0.00  0.00     0.003 A 
ATOM     19  C   UNL d   1      -6.408   7.204   3.318  0.00  0.00     0.017 A 
ATOM     20  C   UNL d   1      -6.921   7.175   2.016  0.00  0.00     0.034 A 
ATOM     21  C   UNL d   1      -6.060   6.834   0.950  0.00  0.00     0.047 A 
BRANCH  20  22
ATOM     22  C   UNL d   1      -8.358   7.476   1.714  0.00  0.00     0.252 C 
ATOM     23  O   UNL d   1      -8.742   7.436   0.545  0.00  0.00    -0.268 OA
ATOM     24  N   UNL d   1      -9.206   7.786   2.767  0.00  0.00    -0.353 N 
ATOM     25  H   UNL d   1      -8.855   7.854   3.708  0.00  0.00     0.163 HD
BRANCH  24  26
ATOM     26  C   UNL d   1     -10.627   8.069   2.571  0.00  0.00     0.076 C 
ATOM     27  C   UNL d   1     -11.358   6.856   1.998  0.00  0.00     0.032 C 
ATOM     28  C   UNL d   1     -11.298   8.472   3.888  0.00  0.00     0.032 C 
ENDBRANCH  24  26
ENDBRANCH  20  22
ENDBRANCH   1  16
TORSDOF 5
