REMARK  4 active torsions:
REMARK  status: ('A' for Active; 'I' for Inactive)
REMARK    1  A    between atoms: C_6  and  N_7 
REMARK       I    between atoms: N_7  and  C_8 
REMARK    2  A    between atoms: C_10  and  C_8 
REMARK    3  A    between atoms: C_10  and  N_12 
REMARK       I    between atoms: N_12  and  C_13 
REMARK    4  A    between atoms: C_13  and  C_15 
ROOT
ATOM      1  C   UNL d   1       1.814  -5.128   0.024  0.00  0.00     0.173 C 
ATOM      2  C   UNL d   1       1.052  -3.790  -0.042  0.00  0.00     0.042 C 
ENDROOT
BRANCH   1   3
ATOM      3  N   UNL d   1       0.881  -6.253   0.027  0.00  0.00    -0.344 N 
ATOM      4  C   UNL d   1       1.331  -7.546  -0.074  0.00  0.00     0.252 C 
ATOM      5  O   UNL d   1       2.527  -7.836  -0.141  0.00  0.00    -0.268 OA
ATOM      6  H   UNL d   1      -0.111  -6.062   0.092  0.00  0.00     0.163 HD
BRANCH   4   7
ATOM      7  C   UNL d   1       0.346  -8.629   0.002  0.00  0.00     0.032 A 
ATOM      8  C   UNL d   1       0.623  -9.749   0.798  0.00  0.00     0.017 A 
ATOM      9  C   UNL d   1      -0.188 -10.877   0.700  0.00  0.00     0.001 A 
ATOM     10  C   UNL d   1      -1.305 -10.854  -0.137  0.00  0.00     0.000 A 
ATOM     11  C   UNL d   1      -1.594  -9.720  -0.900  0.00  0.00     0.001 A 
ATOM     12  C   UNL d   1      -0.765  -8.603  -0.837  0.00  0.00     0.017 A 
ENDBRANCH   4   7
ENDBRANCH   1   3
BRANCH   1  13
ATOM     13  C   UNL d   1       2.738  -5.050   1.265  0.00  0.00     0.245 C 
ATOM     14  N   UNL d   1       3.165  -6.235   1.835  0.00  0.00    -0.310 N 
ATOM     15  H   UNL d   1       2.970  -7.118   1.372  0.00  0.00     0.170 HD
ATOM     16  O   UNL d   1       3.125  -3.932   1.615  0.00  0.00    -0.271 OA
BRANCH  14  17
ATOM     17  C   UNL d   1       3.991  -6.367   2.956  0.00  0.00     0.130 A 
ATOM     18  N   UNL d   1       4.286  -7.617   3.380  0.00  0.00    -0.243 NA
ATOM     19  C   UNL d   1       5.093  -7.720   4.471  0.00  0.00     0.119 A 
ATOM     20  C   UNL d   1       5.635  -6.638   5.153  0.00  0.00     0.026 A 
ATOM     21  C   UNL d   1       5.328  -5.369   4.695  0.00  0.00    -0.057 A 
ATOM     22  C   UNL d   1       5.854  -4.102   5.284  0.00  0.00     0.048 C 
ATOM     23  C   UNL d   1       4.485  -5.251   3.602  0.00  0.00     0.057 A 
ENDBRANCH  14  17
ENDBRANCH   1  13
TORSDOF 4
