REMARK  12 active torsions:
REMARK  status: ('A' for Active; 'I' for Inactive)
REMARK    1  A    between atoms: C_2  and  C_3 
REMARK    2  A    between atoms: C_3  and  C_4 
REMARK    3  A    between atoms: C_4  and  N_5 
REMARK       I    between atoms: N_5  and  C_6 
REMARK    4  A    between atoms: C_6  and  C_8 
REMARK    5  A    between atoms: C_8  and  C_9 
REMARK    6  A    between atoms: C_8  and  N_22 
REMARK    7  A    between atoms: C_9  and  C_10 
REMARK    8  A    between atoms: C_9  and  C_16 
REMARK       I    between atoms: N_22  and  C_23 
REMARK    9  A    between atoms: N_22  and  C_33 
REMARK   10  A    between atoms: C_23  and  C_25 
REMARK   11  A    between atoms: C_29  and  O_30 
REMARK   12  A    between atoms: C_31  and  O_32 
ROOT
ATOM      1  C   UNL d   1       7.014  -3.276  -3.059  0.00  0.00     0.193 C 
ENDROOT
BRANCH   1   2
ATOM      2  C   UNL d   1       6.315  -2.012  -2.438  0.00  0.00     0.241 C 
ATOM      3  N   UNL d   1       5.135  -2.183  -1.715  0.00  0.00    -0.359 N 
ATOM      4  H   UNL d   1       4.480  -2.869  -2.082  0.00  0.00     0.162 HD
ATOM      5  O   UNL d   1       6.753  -0.862  -2.658  0.00  0.00    -0.271 OA
BRANCH   3   6
ATOM      6  C   UNL d   1       4.543  -1.051  -1.024  0.00  0.00     0.122 C 
BRANCH   6   7
ATOM      7  C   UNL d   1       3.034  -1.031  -0.954  0.00  0.00     0.019 C 
BRANCH   7   8
ATOM      8  C   UNL d   1       2.559   0.064   0.001  0.00  0.00    -0.003 C 
ATOM      9  C   UNL d   1       1.044   0.087   0.025  0.00  0.00     0.005 C 
ENDBRANCH   7   8
ENDBRANCH   6   7
ENDBRANCH   3   6
ENDBRANCH   1   2
BRANCH   1  10
ATOM     10  C   UNL d   1       6.385  -3.179  -4.572  0.00  0.00     0.084 C 
BRANCH  10  11
ATOM     11  C   UNL d   1       6.650  -4.254  -5.641  0.00  0.00    -0.047 C 
ATOM     12  C   UNL d   1       6.462  -5.619  -5.315  0.00  0.00     0.008 C 
ATOM     13  C   UNL d   1       6.934  -6.657  -6.095  0.00  0.00     0.001 C 
ATOM     14  C   UNL d   1       7.745  -6.353  -7.171  0.00  0.00     0.000 C 
ATOM     15  C   UNL d   1       8.003  -5.015  -7.502  0.00  0.00     0.001 C 
ATOM     16  C   UNL d   1       7.375  -3.955  -6.815  0.00  0.00     0.008 C 
ENDBRANCH  10  11
BRANCH  10  17
ATOM     17  C   UNL d   1       4.846  -3.093  -4.493  0.00  0.00    -0.047 A 
ATOM     18  C   UNL d   1       4.182  -1.867  -4.511  0.00  0.00     0.008 A 
ATOM     19  C   UNL d   1       2.807  -1.844  -4.273  0.00  0.00     0.001 A 
ATOM     20  C   UNL d   1       2.071  -3.025  -4.119  0.00  0.00     0.000 A 
ATOM     21  C   UNL d   1       2.709  -4.241  -4.136  0.00  0.00     0.001 A 
ATOM     22  C   UNL d   1       4.075  -4.252  -4.267  0.00  0.00     0.008 A 
ENDBRANCH  10  17
ENDBRANCH   1  10
BRANCH   1  23
ATOM     23  N   UNL d   1       8.606  -3.259  -2.857  0.00  0.00    -0.325 N 
ATOM     24  C   UNL d   1       9.302  -2.406  -1.954  0.00  0.00     0.258 C 
ATOM     25  O   UNL d   1      10.525  -2.249  -1.961  0.00  0.00    -0.267 OA
BRANCH  24  26
ATOM     26  C   UNL d   1       8.694  -1.553  -0.935  0.00  0.00     0.068 A 
ATOM     27  C   UNL d   1       9.124  -0.211  -0.928  0.00  0.00     0.020 A 
ATOM     28  C   UNL d   1       8.589   0.698  -0.023  0.00  0.00     0.004 A 
ATOM     29  C   UNL d   1       7.567   0.290   0.830  0.00  0.00     0.039 A 
ATOM     30  C   UNL d   1       7.185  -1.052   0.858  0.00  0.00     0.099 A 
ATOM     31  C   UNL d   1       7.758  -1.987  -0.007  0.00  0.00     0.114 A 
BRANCH  30  32
ATOM     32  O   UNL d   1       6.176  -1.476   1.683  0.00  0.00    -0.358 OA
ATOM     33  H   UNL d   1       5.726  -0.690   2.039  0.00  0.00     0.217 HD
ENDBRANCH  30  32
BRANCH  31  34
ATOM     34  O   UNL d   1       7.252  -3.260  -0.054  0.00  0.00    -0.357 OA
ATOM     35  H   UNL d   1       6.296  -3.141   0.119  0.00  0.00     0.217 HD
ENDBRANCH  31  34
ENDBRANCH  24  26
BRANCH  23  36
ATOM     36  C   UNL d   1       9.496  -4.322  -3.492  0.00  0.00     0.025 C 
ATOM     37  C   UNL d   1       9.040  -5.755  -3.118  0.00  0.00     0.037 C 
ATOM     38  C   UNL d   1       9.457  -4.153  -4.970  0.00  0.00     0.037 C 
ATOM     39  C   UNL d   1      11.024  -4.231  -3.362  0.00  0.00     0.037 C 
ENDBRANCH  23  36
ENDBRANCH   1  23
TORSDOF 12
