REMARK  4 active torsions:
REMARK  status: ('A' for Active; 'I' for Inactive)
REMARK    1  A    between atoms: C_2  and  N_3 
REMARK    2  A    between atoms: C_2  and  C_13 
REMARK       I    between atoms: N_3  and  C_4 
REMARK    3  A    between atoms: C_4  and  C_6 
REMARK       I    between atoms: C_13  and  N_15 
REMARK    4  A    between atoms: N_15  and  C_16 
ROOT
ATOM      1  C   UNL d   1       0.962  -0.022  -0.081  0.00  0.00     0.042 C 
ATOM      2  C   UNL d   1       2.501   0.011  -0.072  0.00  0.00     0.173 C 
ENDROOT
BRANCH   2   3
ATOM      3  N   UNL d   1       3.032   1.345  -0.419  0.00  0.00    -0.344 N 
ATOM      4  C   UNL d   1       2.662   1.976  -1.600  0.00  0.00     0.252 C 
ATOM      5  O   UNL d   1       1.966   1.453  -2.469  0.00  0.00    -0.268 OA
ATOM      6  H   UNL d   1       3.462   1.898   0.312  0.00  0.00     0.163 HD
BRANCH   4   7
ATOM      7  C   UNL d   1       3.111   3.377  -1.813  0.00  0.00     0.032 A 
ATOM      8  C   UNL d   1       4.435   3.754  -1.569  0.00  0.00     0.018 A 
ATOM      9  C   UNL d   1       4.852   5.060  -1.854  0.00  0.00     0.025 A 
ATOM     10  C   UNL d   1       3.949   5.988  -2.377  0.00  0.00     0.034 A 
ATOM     11 CL   UNL d   1       4.469   7.596  -2.703  0.00  0.00    -0.084 Cl
ATOM     12  C   UNL d   1       2.633   5.616  -2.640  0.00  0.00     0.025 A 
ATOM     13  C   UNL d   1       2.216   4.308  -2.366  0.00  0.00     0.018 A 
ENDBRANCH   4   7
ENDBRANCH   2   3
BRANCH   2  14
ATOM     14  C   UNL d   1       2.963  -0.508   1.325  0.00  0.00     0.244 C 
ATOM     15  O   UNL d   1       2.143  -0.851   2.178  0.00  0.00    -0.271 OA
ATOM     16  N   UNL d   1       4.334  -0.578   1.536  0.00  0.00    -0.324 N 
ATOM     17  H   UNL d   1       4.952  -0.119   0.878  0.00  0.00     0.169 HD
BRANCH  16  18
ATOM     18  C   UNL d   1       4.888  -1.048   2.758  0.00  0.00     0.052 A 
ATOM     19  C   UNL d   1       4.346  -2.131   3.455  0.00  0.00     0.032 A 
ATOM     20  C   UNL d   1       4.943  -2.579   4.634  0.00  0.00     0.021 A 
ATOM     21  C   UNL d   1       6.063  -1.913   5.098  0.00  0.00     0.116 A 
ATOM     22  N   UNL d   1       6.614  -0.854   4.465  0.00  0.00    -0.271 NA
ATOM     23  C   UNL d   1       6.021  -0.455   3.309  0.00  0.00     0.145 A 
ENDBRANCH  16  18
ENDBRANCH   2  14
TORSDOF 4
