REMARK  11 active torsions:
REMARK  status: ('A' for Active; 'I' for Inactive)
REMARK    1  A    between atoms: C_2  and  N_4 
REMARK    2  A    between atoms: N_4  and  C_5 
REMARK       I    between atoms: N_4  and  C_12 
REMARK    3  A    between atoms: C_5  and  C_6 
REMARK    4  A    between atoms: C_12  and  C_14 
REMARK    5  A    between atoms: C_14  and  N_15 
REMARK    6  A    between atoms: N_15  and  C_16 
REMARK    7  A    between atoms: C_18  and  N_19 
REMARK    8  A    between atoms: C_24  and  N_25 
REMARK    9  A    between atoms: N_25  and  C_26 
REMARK   10  A    between atoms: C_26  and  C_27 
REMARK   11  A    between atoms: C_27  and  O_28 
ROOT
ATOM      1  N   UNL d   1       6.478  -1.457  -2.797  0.00  0.00    -0.379 N 
ATOM      2  H   UNL d   1       7.040  -0.913  -2.139  0.00  0.00     0.160 HD
ENDROOT
BRANCH   1   3
ATOM      3  C   UNL d   1       5.045  -1.510  -2.506  0.00  0.00     0.223 C 
BRANCH   3   4
ATOM      4  C   UNL d   1       4.510  -0.822  -1.291  0.00  0.00     0.238 C 
ATOM      5  N   UNL d   1       3.072  -0.652  -1.231  0.00  0.00    -0.343 N 
ATOM      6  O   UNL d   1       5.297  -0.276  -0.501  0.00  0.00    -0.272 OA
BRANCH   5   7
ATOM      7  C   UNL d   1       2.681  -0.068   0.076  0.00  0.00     0.079 C 
ATOM      8  C   UNL d   1       1.226   0.132   0.388  0.00  0.00     0.032 C 
ATOM      9  C   UNL d   1       3.166  -0.944   1.227  0.00  0.00     0.032 C 
ENDBRANCH   5   7
BRANCH   5  10
ATOM     10  C   UNL d   1       2.083  -1.153  -2.316  0.00  0.00     0.164 C 
BRANCH  10  11
ATOM     11  C   UNL d   1       0.580  -0.899  -2.172  0.00  0.00    -0.040 C 
ATOM     12  C   UNL d   1      -0.000   0.388  -2.165  0.00  0.00     0.009 C 
ATOM     13  C   UNL d   1      -1.195   0.599  -1.437  0.00  0.00     0.001 C 
ATOM     14  C   UNL d   1      -1.914  -0.479  -0.920  0.00  0.00     0.000 C 
ATOM     15  C   UNL d   1      -1.451  -1.773  -1.138  0.00  0.00     0.001 C 
ATOM     16  C   UNL d   1      -0.217  -1.983  -1.763  0.00  0.00     0.009 C 
ENDBRANCH  10  11
ENDBRANCH   5  10
ENDBRANCH   3   4
ENDBRANCH   1   3
BRANCH   1  17
ATOM     17  C   UNL d   1       7.092  -1.774  -4.022  0.00  0.00     0.057 A 
ATOM     18  C   UNL d   1       8.252  -2.587  -3.871  0.00  0.00     0.067 A 
ATOM     19  C   UNL d   1       9.041  -2.972  -4.970  0.00  0.00     0.105 A 
ATOM     20  C   UNL d   1       8.650  -2.651  -6.261  0.00  0.00     0.038 A 
ATOM     21  C   UNL d   1       7.535  -1.837  -6.441  0.00  0.00     0.034 A 
ATOM     22  C   UNL d   1       6.749  -1.352  -5.362  0.00  0.00     0.054 A 
BRANCH  19  23
ATOM     23  N   UNL d   1      10.336  -3.635  -4.757  0.00  0.00    -0.116 N 
ATOM     24  O   UNL d   1      10.687  -3.880  -3.604  0.00  0.00    -0.532 OA
ATOM     25  O   UNL d   1      11.024  -3.883  -5.771  0.00  0.00    -0.532 OA
ENDBRANCH  19  23
BRANCH  22  26
ATOM     26  N   UNL d   1       5.844  -0.329  -5.787  0.00  0.00    -0.386 N 
ATOM     27  H   UNL d   1       5.505  -0.454  -6.736  0.00  0.00     0.159 HD
BRANCH  26  28
ATOM     28  C   UNL d   1       4.841   0.064  -4.851  0.00  0.00     0.146 C 
BRANCH  28  29
ATOM     29  C   UNL d   1       3.679   0.969  -5.190  0.00  0.00     0.183 C 
BRANCH  29  30
ATOM     30  O   UNL d   1       3.068   1.549  -4.021  0.00  0.00    -0.399 OA
ATOM     31  H   UNL d   1       3.022   0.928  -3.276  0.00  0.00     0.209 HD
ENDBRANCH  29  30
ENDBRANCH  28  29
ENDBRANCH  26  28
ENDBRANCH  22  26
ENDBRANCH   1  17
TORSDOF 11
