@<TRIPOS>MOLECULE
*****
 48 50 0 0 0
SMALL
GASTEIGER

@<TRIPOS>ATOM
      1 C           0.8569    2.0282    0.0130 C.3     1  UNL1       -0.0366
      2 C          -0.1660    0.9425    0.0020 C.ar    1  UNL1       -0.0110
      3 C           0.3283   -0.3795    0.0084 C.ar    1  UNL1        0.0456
      4 CL          2.0265   -0.7414    0.0049 Cl      1  UNL1       -0.0832
      5 C          -0.5303   -1.4651    0.0134 C.ar    1  UNL1       -0.0430
      6 C          -1.9014   -1.2513    0.0044 C.ar    1  UNL1       -0.0586
      7 C          -2.4187    0.0590   -0.0113 C.ar    1  UNL1       -0.0401
      8 C          -1.5697    1.1924   -0.0114 C.ar    1  UNL1        0.0377
      9 N          -2.2101    2.4969   -0.0348 N.am    1  UNL1       -0.2839
     10 C          -1.6116    3.7473   -0.0266 C.2     1  UNL1        0.2343
     11 O          -0.4046    4.0015    0.0572 O.2     1  UNL1       -0.2738
     12 C          -2.4477    5.0171   -0.0933 C.3     1  UNL1        0.0861
     13 N          -1.4735    6.1156   -0.2958 N.pl3   1  UNL1       -0.3354
     14 C          -1.7094    7.4447   -0.0717 C.ar    1  UNL1        0.0275
     15 C          -0.9838    8.3999   -0.7923 C.ar    1  UNL1       -0.0401
     16 C          -1.2768    9.7635   -0.6709 C.ar    1  UNL1       -0.0479
     17 C          -2.3203   10.1912    0.1603 C.ar    1  UNL1        0.0368
     18 C          -2.7102   11.6422    0.1368 C.2     1  UNL1        0.2444
     19 O          -2.1144   12.4369   -0.5810 O.2     1  UNL1       -0.2702
     20 N          -3.7767   12.0126    0.9220 N.am    1  UNL1       -0.3042
     21 C          -4.3033   13.3672    0.9661 C.3     1  UNL1        0.0700
     22 C          -5.4820   13.4025    1.8861 C.ar    1  UNL1        0.1218
     23 C          -6.2796   12.4182    2.4410 C.ar    1  UNL1       -0.0192
     24 C          -7.2434   13.0648    3.2423 C.ar    1  UNL1       -0.0236
     25 C          -6.9991   14.4107    3.1158 C.ar    1  UNL1        0.0921
     26 O          -5.9316   14.6289    2.2981 O.2     1  UNL1       -0.4662
     27 C          -2.9895    9.2352    0.9347 C.ar    1  UNL1       -0.0479
     28 C          -2.6773    7.8819    0.8197 C.ar    1  UNL1       -0.0401
     29 H           1.9062    1.7535    0.0273 H       1  UNL1        0.0279
     30 H           0.7326    2.5751    0.9543 H       1  UNL1        0.0279
     31 H           0.7490    2.5868   -0.9237 H       1  UNL1        0.0279
     32 H          -0.1182   -2.4707    0.0229 H       1  UNL1        0.0632
     33 H          -2.5594   -2.1181    0.0066 H       1  UNL1        0.0619
     34 H          -3.5041    0.1531   -0.0238 H       1  UNL1        0.0636
     35 H          -3.2257    2.4805   -0.0553 H       1  UNL1        0.1549
     36 H          -2.9977    5.1017    0.8464 H       1  UNL1        0.0557
     37 H          -3.1074    4.9957   -0.9603 H       1  UNL1        0.0557
     38 H          -0.5025    5.8076   -0.1269 H       1  UNL1        0.1466
     39 H          -0.2275    8.0799   -1.5093 H       1  UNL1        0.0636
     40 H          -0.7058   10.4825   -1.2552 H       1  UNL1        0.0626
     41 H          -4.2283   11.3293    1.4986 H       1  UNL1        0.1495
     42 H          -4.5973   13.6601   -0.0475 H       1  UNL1        0.0543
     43 H          -3.5046   14.0349    1.3051 H       1  UNL1        0.0543
     44 H          -6.1777   11.3550    2.2881 H       1  UNL1        0.0652
     45 H          -8.0225   12.5999    3.8295 H       1  UNL1        0.0649
     46 H          -7.4752   15.2915    3.5257 H       1  UNL1        0.1029
     47 H          -3.7747    9.4834    1.6347 H       1  UNL1        0.0626
     48 H          -3.2061    7.1693    1.4424 H       1  UNL1        0.0636
@<TRIPOS>BOND
     1     1     2    1
     2     2     3   ar
     3     3     4    1
     4     3     5   ar
     5     5     6   ar
     6     6     7   ar
     7     7     8   ar
     8     2     8   ar
     9     8     9    1
    10     9    10   am
    11    10    11    2
    12    10    12    1
    13    12    13    1
    14    13    14    1
    15    14    15   ar
    16    15    16   ar
    17    16    17   ar
    18    17    18    1
    19    18    19    2
    20    18    20   am
    21    20    21    1
    22    21    22    1
    23    22    23   ar
    24    23    24   ar
    25    24    25   ar
    26    25    26   ar
    27    22    26   ar
    28    17    27   ar
    29    27    28   ar
    30    14    28   ar
    31     1    29    1
    32     1    30    1
    33     1    31    1
    34     5    32    1
    35     6    33    1
    36     7    34    1
    37     9    35    1
    38    12    36    1
    39    12    37    1
    40    13    38    1
    41    15    39    1
    42    16    40    1
    43    20    41    1
    44    21    42    1
    45    21    43    1
    46    23    44    1
    47    24    45    1
    48    25    46    1
    49    27    47    1
    50    28    48    1
