@<TRIPOS>MOLECULE
*****
 55 58 0 0 0
SMALL
GASTEIGER

@<TRIPOS>ATOM
      1 O           1.0485    0.0431   -0.0149 O.2     1  UNL1       -0.2749
      2 C           2.2765   -0.0774    0.1023 C.2     1  UNL1        0.2235
      3 C           2.9578   -0.9325    1.1872 C.3     1  UNL1        0.0777
      4 S           1.7734   -1.7617    2.2850 S.3     1  UNL1       -0.0750
      5 C           2.7831   -2.7134    3.3574 C.ar    1  UNL1        0.2105
      6 N           2.6259   -4.0400    3.4562 N.ar    1  UNL1       -0.1443
      7 N           3.3562   -4.3171    4.5545 N.ar    1  UNL1       -0.2446
      8 C           3.9423   -3.1927    5.0761 C.ar    1  UNL1        0.2317
      9 N           4.7191   -3.2320    6.1992 N.pl3   1  UNL1       -0.2054
     10 N           5.2589   -2.0810    6.6948 N.2     1  UNL1       -0.1875
     11 C           6.0575   -2.1369    7.7131 C.2     1  UNL1        0.0529
     12 C           6.6033   -0.8823    8.2888 C.ar    1  UNL1       -0.0020
     13 C           7.8584   -0.8026    8.8919 C.ar    1  UNL1       -0.0529
     14 C           8.2340    0.3777    9.5516 C.ar    1  UNL1       -0.0577
     15 C           7.3689    1.4787    9.5811 C.ar    1  UNL1       -0.0193
     16 C           6.1220    1.4005    8.9563 C.ar    1  UNL1        0.1290
     17 O           5.3086    2.5114    9.0406 O.3     1  UNL1       -0.4560
     18 C           3.9967    2.3995    8.6304 C.ar    1  UNL1        0.1284
     19 C           3.5396    3.3284    7.6980 C.ar    1  UNL1       -0.0193
     20 C           2.2086    3.2920    7.2802 C.ar    1  UNL1       -0.0583
     21 C           1.3587    2.2815    7.7332 C.ar    1  UNL1       -0.0615
     22 C           1.8178    1.3438    8.6560 C.ar    1  UNL1       -0.0583
     23 C           3.1229    1.4298    9.1396 C.ar    1  UNL1       -0.0193
     24 C           5.7671    0.2298    8.2852 C.ar    1  UNL1       -0.0107
     25 N           3.6011   -2.1707    4.3118 N.ar    1  UNL1       -0.1865
     26 N           3.0521    0.5888   -0.8233 N.am    1  UNL1       -0.3118
     27 C           4.5027    0.6521   -0.9098 C.3     1  UNL1        0.0231
     28 C           5.1304   -0.7250   -1.0741 C.3     1  UNL1       -0.0345
     29 C           6.5335   -0.4629   -1.5693 C.3     1  UNL1       -0.0513
     30 C           6.4470    0.8263   -2.3718 C.3     1  UNL1       -0.0513
     31 C           5.0294    1.3729   -2.1612 C.3     1  UNL1       -0.0345
     32 H           3.6416   -0.2957    1.7568 H       1  UNL1        0.0475
     33 H           3.4985   -1.7355    0.6901 H       1  UNL1        0.0475
     34 H           3.3914   -5.2710    4.8919 H       1  UNL1        0.1919
     35 H           4.8652   -4.1009    6.7091 H       1  UNL1        0.1774
     36 H           6.3346   -3.0785    8.2181 H       1  UNL1        0.0851
     37 H           8.5602   -1.6288    8.8335 H       1  UNL1        0.0624
     38 H           9.1968    0.4406   10.0559 H       1  UNL1        0.0619
     39 H           7.6731    2.3949   10.0851 H       1  UNL1        0.0654
     40 H           4.2206    4.0669    7.2853 H       1  UNL1        0.0654
     41 H           1.8339    4.0473    6.5952 H       1  UNL1        0.0619
     42 H           0.3386    2.2226    7.3622 H       1  UNL1        0.0618
     43 H           1.1618    0.5475    8.9977 H       1  UNL1        0.0619
     44 H           3.4692    0.6988    9.8648 H       1  UNL1        0.0654
     45 H           4.8133    0.1446    7.7738 H       1  UNL1        0.0661
     46 H           2.5030    1.1582   -1.4613 H       1  UNL1        0.1490
     47 H           4.8686    1.1571   -0.0084 H       1  UNL1        0.0498
     48 H           4.5620   -1.3164   -1.8031 H       1  UNL1        0.0283
     49 H           5.1902   -1.2851   -0.1436 H       1  UNL1        0.0283
     50 H           6.9039   -1.3077   -2.1566 H       1  UNL1        0.0266
     51 H           7.2048   -0.3334   -0.7120 H       1  UNL1        0.0266
     52 H           6.6438    0.6366   -3.4322 H       1  UNL1        0.0266
     53 H           7.2049    1.5348   -2.0197 H       1  UNL1        0.0266
     54 H           4.4191    1.1337   -3.0419 H       1  UNL1        0.0283
     55 H           5.0308    2.4636   -2.0591 H       1  UNL1        0.0283
@<TRIPOS>BOND
     1     1     2    2
     2     2     3    1
     3     3     4    1
     4     4     5    1
     5     5     6   ar
     6     6     7   ar
     7     7     8   ar
     8     8     9    1
     9     9    10    1
    10    10    11    2
    11    11    12    1
    12    12    13   ar
    13    13    14   ar
    14    14    15   ar
    15    15    16   ar
    16    16    17    1
    17    17    18    1
    18    18    19   ar
    19    19    20   ar
    20    20    21   ar
    21    21    22   ar
    22    22    23   ar
    23    18    23   ar
    24    16    24   ar
    25    12    24   ar
    26     8    25   ar
    27     5    25   ar
    28     2    26   am
    29    26    27    1
    30    27    28    1
    31    28    29    1
    32    29    30    1
    33    30    31    1
    34    27    31    1
    35     3    32    1
    36     3    33    1
    37     7    34    1
    38     9    35    1
    39    11    36    1
    40    13    37    1
    41    14    38    1
    42    15    39    1
    43    19    40    1
    44    20    41    1
    45    21    42    1
    46    22    43    1
    47    23    44    1
    48    24    45    1
    49    26    46    1
    50    27    47    1
    51    28    48    1
    52    28    49    1
    53    29    50    1
    54    29    51    1
    55    30    52    1
    56    30    53    1
    57    31    54    1
    58    31    55    1
