REMARK  4 active torsions:
REMARK  status: ('A' for Active; 'I' for Inactive)
REMARK    1  A    between atoms: O_2  and  C_3 
REMARK    2  A    between atoms: C_6  and  C_7 
REMARK       I    between atoms: C_7  and  N_8 
REMARK    3  A    between atoms: C_11  and  N_12 
REMARK       I    between atoms: N_12  and  C_13 
REMARK    4  A    between atoms: C_13  and  C_15 
ROOT
ATOM      1  C   UNL d   1       3.015   1.204  -0.168  0.00  0.00     0.095 A 
ATOM      2  C   UNL d   1       4.196   1.369  -0.906  0.00  0.00     0.040 A 
ATOM      3  C   UNL d   1       5.009   2.492  -0.751  0.00  0.00     0.020 A 
ATOM      4  C   UNL d   1       4.606   3.532   0.085  0.00  0.00     0.034 A 
ATOM      5  C   UNL d   1       3.439   3.358   0.864  0.00  0.00     0.049 A 
ATOM      6  C   UNL d   1       2.666   2.171   0.793  0.00  0.00     0.069 A 
ENDROOT
BRANCH   6   7
ATOM      7  N   UNL d   1       1.565   2.053   1.687  0.00  0.00    -0.320 N 
ATOM      8  C   UNL d   1       0.987   0.862   2.082  0.00  0.00     0.258 C 
ATOM      9  O   UNL d   1       1.588  -0.213   2.094  0.00  0.00    -0.267 OA
ATOM     10  H   UNL d   1       1.201   2.912   2.083  0.00  0.00     0.169 HD
BRANCH   8  11
ATOM     11  C   UNL d   1      -0.467   0.837   2.464  0.00  0.00     0.055 A 
ATOM     12  C   UNL d   1      -0.927  -0.427   2.903  0.00  0.00     0.019 A 
ATOM     13  C   UNL d   1      -2.229  -0.622   3.346  0.00  0.00     0.003 A 
ATOM     14  C   UNL d   1      -3.095   0.459   3.385  0.00  0.00     0.026 A 
ATOM     15  C   UNL d   1      -2.702   1.692   2.852  0.00  0.00     0.056 A 
ATOM     16 CL   UNL d   1      -3.894   2.950   2.858  0.00  0.00    -0.083 Cl
ATOM     17  C   UNL d   1      -1.396   1.886   2.353  0.00  0.00     0.071 A 
ATOM     18 CL   UNL d   1      -1.008   3.395   1.586  0.00  0.00    -0.081 Cl
ENDBRANCH   8  11
ENDBRANCH   6   7
BRANCH   1  19
ATOM     19  O   UNL d   1       2.382   0.028  -0.458  0.00  0.00    -0.354 OA
ATOM     20  C   UNL d   1       0.983   0.032  -0.712  0.00  0.00     0.210 C 
ENDBRANCH   1  19
BRANCH   4  21
ATOM     21  C   UNL d   1       5.364   4.824   0.131  0.00  0.00     0.249 C 
ATOM     22  N   UNL d   1       6.467   4.979  -0.668  0.00  0.00    -0.366 N 
ATOM     23  H   UNL d   1       6.829   4.292  -1.312  0.00  0.00     0.159 HD
ATOM     24  H   UNL d   1       6.933   5.878  -0.660  0.00  0.00     0.159 HD
ATOM     25  O   UNL d   1       4.991   5.759   0.843  0.00  0.00    -0.268 OA
ENDBRANCH   4  21
TORSDOF 4
