@<TRIPOS>MOLECULE
*****
 38 41 0 0 0
SMALL
GASTEIGER

@<TRIPOS>ATOM
      1 O           0.9865    0.0602    0.1356 O.2     1  UNL1       -0.2703
      2 C           2.2126    0.0933    0.0378 C.2     1  UNL1        0.2719
      3 N           2.9984    0.8980    0.8552 N.am    1  UNL1       -0.2287
      4 N           2.3929    1.8222    1.8358 N.3     1  UNL1       -0.1077
      5 S           3.5136    2.7825    2.6869 S.O2    1  UNL1        0.0757
      6 O           4.1853    1.8808    3.5955 O.2     1  UNL1       -0.1516
      7 O           4.2734    3.4699    1.6592 O.2     1  UNL1       -0.1516
      8 C           2.6056    3.9334    3.6635 C.ar    1  UNL1        0.1348
      9 C           1.7233    3.4984    4.6848 C.ar    1  UNL1       -0.0330
     10 C           1.1436    4.3790    5.6408 C.ar    1  UNL1       -0.0577
     11 C           1.3939    5.7611    5.6687 C.ar    1  UNL1       -0.0334
     12 C           2.2478    6.2531    4.6563 C.ar    1  UNL1        0.1018
     13 N           2.5935    7.5397    4.4994 N.ar    1  UNL1       -0.1907
     14 S           3.6019    7.5992    3.1858 S.2     1  UNL1        0.1165
     15 N           3.6670    5.9971    2.7831 N.ar    1  UNL1       -0.1888
     16 C           2.8738    5.3262    3.6320 C.ar    1  UNL1        0.1261
     17 C           3.0260   -0.8010   -0.9428 C.3     1  UNL1        0.2103
     18 C           4.0539    0.0214   -1.7163 C.3     1  UNL1        0.1352
     19 O           3.4102    0.9581   -2.5840 O.3     1  UNL1       -0.4841
     20 C           2.4032    0.3619   -3.2970 C.ar    1  UNL1        0.1621
     21 C           1.9109    1.0677   -4.3921 C.ar    1  UNL1       -0.0163
     22 C           0.9196    0.5020   -5.1944 C.ar    1  UNL1       -0.0581
     23 C           0.4221   -0.7682   -4.8985 C.ar    1  UNL1       -0.0581
     24 C           0.8983   -1.4644   -3.7844 C.ar    1  UNL1       -0.0163
     25 C           1.8692   -0.8865   -2.9668 C.ar    1  UNL1        0.1632
     26 O           2.2485   -1.5889   -1.8510 O.3     1  UNL1       -0.4725
     27 H           4.0034    1.0095    0.7345 H       1  UNL1        0.1707
     28 H           1.5474    1.4807    2.2993 H       1  UNL1        0.1716
     29 H           1.4904    2.4371    4.7807 H       1  UNL1        0.0638
     30 H           0.4856    3.9683    6.4097 H       1  UNL1        0.0619
     31 H           0.9677    6.4206    6.4176 H       1  UNL1        0.0640
     32 H           3.5560   -1.5277   -0.3130 H       1  UNL1        0.0867
     33 H           4.7153   -0.6170   -2.3149 H       1  UNL1        0.0739
     34 H           4.7005    0.5965   -1.0493 H       1  UNL1        0.0739
     35 H           2.3033    2.0540   -4.6220 H       1  UNL1        0.0655
     36 H           0.5392    1.0509   -6.0520 H       1  UNL1        0.0619
     37 H          -0.3473   -1.2092   -5.5276 H       1  UNL1        0.0619
     38 H           0.4981   -2.4463   -3.5474 H       1  UNL1        0.0655
@<TRIPOS>BOND
     1     1     2    2
     2     2     3   am
     3     3     4    1
     4     4     5    1
     5     5     6    2
     6     5     7    2
     7     5     8    1
     8     8     9   ar
     9     9    10   ar
    10    10    11   ar
    11    11    12   ar
    12    12    13   ar
    13    13    14   ar
    14    14    15   ar
    15    15    16   ar
    16     8    16   ar
    17    12    16   ar
    18     2    17    1
    19    17    18    1
    20    18    19    1
    21    19    20    1
    22    20    21   ar
    23    21    22   ar
    24    22    23   ar
    25    23    24   ar
    26    24    25   ar
    27    20    25   ar
    28    25    26    1
    29    17    26    1
    30     3    27    1
    31     4    28    1
    32     9    29    1
    33    10    30    1
    34    11    31    1
    35    17    32    1
    36    18    33    1
    37    18    34    1
    38    21    35    1
    39    22    36    1
    40    23    37    1
    41    24    38    1
