@<TRIPOS>MOLECULE
*****
 44 46 0 0 0
SMALL
GASTEIGER

@<TRIPOS>ATOM
      1 O           0.9840   -0.1671    0.0971 O.2     1  UNL1       -0.2746
      2 C           2.2126   -0.0348   -0.0053 C.2     1  UNL1        0.2275
      3 C           2.8954    1.2022   -0.6317 C.3     1  UNL1        0.0780
      4 S           1.6982    2.3838   -1.3011 S.3     1  UNL1       -0.0750
      5 C           2.6457    3.7925   -1.7275 C.ar    1  UNL1        0.2105
      6 N           3.7519    3.7675   -2.4815 N.ar    1  UNL1       -0.1443
      7 N           3.9331    5.0922   -2.7243 N.ar    1  UNL1       -0.2446
      8 C           2.9902    5.8640   -2.0892 C.ar    1  UNL1        0.2317
      9 N           2.9572    7.2283   -2.1513 N.pl3   1  UNL1       -0.2054
     10 N           1.9884    7.9197   -1.4588 N.2     1  UNL1       -0.1875
     11 C           1.9329    9.2072   -1.5939 C.2     1  UNL1        0.0542
     12 C           0.8776   10.0087   -0.9107 C.ar    1  UNL1        0.0143
     13 C           0.4931    9.6650    0.3955 C.ar    1  UNL1       -0.0516
     14 C          -0.4895   10.4043    1.0638 C.ar    1  UNL1       -0.0597
     15 C          -1.0947   11.4903    0.4337 C.ar    1  UNL1       -0.0419
     16 C          -0.7161   11.8420   -0.8660 C.ar    1  UNL1        0.0599
     17 CL         -1.5037   13.2157   -1.5683 Cl      1  UNL1       -0.0820
     18 C           0.2693   11.1033   -1.5489 C.ar    1  UNL1        0.0679
     19 CL          0.6927   11.5131   -3.1816 Cl      1  UNL1       -0.0814
     20 N           2.1752    5.0484   -1.4570 N.ar    1  UNL1       -0.1865
     21 N           2.9863   -1.1067    0.3961 N.am    1  UNL1       -0.2848
     22 C           4.3781   -1.1738    0.5363 C.ar    1  UNL1        0.0334
     23 C           5.0549   -2.3601    0.2413 C.ar    1  UNL1       -0.0399
     24 C           6.4484   -2.4193    0.3825 C.ar    1  UNL1       -0.0484
     25 C           7.1743   -1.2818    0.7733 C.ar    1  UNL1        0.0549
     26 C           8.6805   -1.2848    0.7861 C.3     1  UNL1        0.4174
     27 F           9.2009   -2.2016    1.6440 F       1  UNL1       -0.1659
     28 F           9.2011   -1.5693   -0.4392 F       1  UNL1       -0.1659
     29 F           9.2178   -0.0845    1.1458 F       1  UNL1       -0.1659
     30 C           6.4772   -0.1243    1.1232 C.ar    1  UNL1       -0.0484
     31 C           5.0924   -0.0895    1.0361 C.ar    1  UNL1       -0.0399
     32 H           3.5653    0.8609   -1.4276 H       1  UNL1        0.0475
     33 H           3.4547    1.7346    0.1337 H       1  UNL1        0.0475
     34 H           4.6960    5.3832   -3.3238 H       1  UNL1        0.1919
     35 H           3.6214    7.7477   -2.7225 H       1  UNL1        0.1774
     36 H           2.6495    9.7617   -2.2251 H       1  UNL1        0.0852
     37 H           0.9631    8.8244    0.9044 H       1  UNL1        0.0624
     38 H          -0.7857   10.1347    2.0764 H       1  UNL1        0.0618
     39 H          -1.8621   12.0583    0.9584 H       1  UNL1        0.0633
     40 H           2.4505   -1.9431    0.6080 H       1  UNL1        0.1548
     41 H           4.5294   -3.2262   -0.1578 H       1  UNL1        0.0636
     42 H           6.9746   -3.3483    0.1639 H       1  UNL1        0.0624
     43 H           7.0004    0.7630    1.4743 H       1  UNL1        0.0624
     44 H           4.5885    0.7888    1.4201 H       1  UNL1        0.0636
@<TRIPOS>BOND
     1     1     2    2
     2     2     3    1
     3     3     4    1
     4     4     5    1
     5     5     6   ar
     6     6     7   ar
     7     7     8   ar
     8     8     9    1
     9     9    10    1
    10    10    11    2
    11    11    12    1
    12    12    13   ar
    13    13    14   ar
    14    14    15   ar
    15    15    16   ar
    16    16    17    1
    17    16    18   ar
    18    12    18   ar
    19    18    19    1
    20     8    20   ar
    21     5    20   ar
    22     2    21   am
    23    21    22    1
    24    22    23   ar
    25    23    24   ar
    26    24    25   ar
    27    25    26    1
    28    26    27    1
    29    26    28    1
    30    26    29    1
    31    25    30   ar
    32    30    31   ar
    33    22    31   ar
    34     3    32    1
    35     3    33    1
    36     7    34    1
    37     9    35    1
    38    11    36    1
    39    13    37    1
    40    14    38    1
    41    15    39    1
    42    21    40    1
    43    23    41    1
    44    24    42    1
    45    30    43    1
    46    31    44    1
