@<TRIPOS>MOLECULE
*****
 33 34 0 0 0
SMALL
GASTEIGER

@<TRIPOS>ATOM
      1 C           0.9459    0.0994   -0.0178 C.3     1  UNL1       -0.0381
      2 C           2.4680   -0.0503   -0.0266 C.3     1  UNL1        0.0948
      3 N           2.9772   -1.4423   -0.1394 N.pl3   1  UNL1       -0.3331
      4 C           2.5493   -2.5295    0.6134 C.ar    1  UNL1        0.0278
      5 C           1.2324   -2.7187    1.0496 C.ar    1  UNL1       -0.0381
      6 C           0.8391   -3.7791    1.8650 C.ar    1  UNL1       -0.0247
      7 C           1.7632   -4.7441    2.1937 C.ar    1  UNL1        0.1235
      8 F           1.3781   -5.7998    2.9205 F       1  UNL1       -0.2055
      9 C           3.0711   -4.6406    1.7400 C.ar    1  UNL1       -0.0247
     10 C           3.4633   -3.5345    0.9641 C.ar    1  UNL1       -0.0381
     11 C           2.9557    0.8213   -1.2167 C.2     1  UNL1        0.2373
     12 O           2.1615    1.2477   -2.0643 O.2     1  UNL1       -0.2734
     13 N           4.3175    1.0489   -1.3102 N.am    1  UNL1       -0.2815
     14 C           4.8608    1.9342   -2.2892 C.ar    1  UNL1        0.0707
     15 C           6.0243    1.5496   -2.9656 C.ar    1  UNL1       -0.0361
     16 C           6.6114    2.4140   -3.8965 C.ar    1  UNL1       -0.0417
     17 C           6.0320    3.6524   -4.1117 C.ar    1  UNL1        0.0294
     18 N           4.9147    4.0656   -3.4891 N.ar    1  UNL1       -0.2417
     19 C           4.3461    3.2066   -2.6054 C.ar    1  UNL1        0.1503
     20 CL          3.0735    3.9890   -1.7385 Cl      1  UNL1       -0.0601
     21 H           0.4937   -0.2605    0.9052 H       1  UNL1        0.0252
     22 H           0.4975   -0.4053   -0.8840 H       1  UNL1        0.0252
     23 H           0.6467    1.1518   -0.0518 H       1  UNL1        0.0252
     24 H           2.8678    0.3796    0.9000 H       1  UNL1        0.0591
     25 H           3.4343   -1.6870   -1.0146 H       1  UNL1        0.1468
     26 H           0.4173   -2.0987    0.7177 H       1  UNL1        0.0637
     27 H          -0.1905   -3.8524    2.1992 H       1  UNL1        0.0647
     28 H           3.7779   -5.4227    1.9948 H       1  UNL1        0.0647
     29 H           4.5017   -3.4659    0.6487 H       1  UNL1        0.0637
     30 H           4.9321    0.3759   -0.8659 H       1  UNL1        0.1549
     31 H           6.4674    0.5687   -2.8167 H       1  UNL1        0.0637
     32 H           7.5047    2.1328   -4.4456 H       1  UNL1        0.0633
     33 H           6.4683    4.3729   -4.7988 H       1  UNL1        0.0830
@<TRIPOS>BOND
     1     1     2    1
     2     2     3    1
     3     3     4    1
     4     4     5   ar
     5     5     6   ar
     6     6     7   ar
     7     7     8    1
     8     7     9   ar
     9     9    10   ar
    10     4    10   ar
    11     2    11    1
    12    11    12    2
    13    11    13   am
    14    13    14    1
    15    14    15   ar
    16    15    16   ar
    17    16    17   ar
    18    17    18   ar
    19    18    19   ar
    20    14    19   ar
    21    19    20    1
    22     1    21    1
    23     1    22    1
    24     1    23    1
    25     2    24    1
    26     3    25    1
    27     5    26    1
    28     6    27    1
    29     9    28    1
    30    10    29    1
    31    13    30    1
    32    15    31    1
    33    16    32    1
    34    17    33    1
