@<TRIPOS>MOLECULE
*****
 71 75 0 0 0
SMALL
GASTEIGER

@<TRIPOS>ATOM
      1 C           1.2914   -0.6137   -0.4160 C.3     1  UNL1        0.0790
      2 O           2.6420   -0.2205   -0.1541 O.3     1  UNL1       -0.4913
      3 C           3.0891    1.0400   -0.5131 C.ar    1  UNL1        0.1658
      4 C           4.2718    1.0392   -1.3169 C.ar    1  UNL1       -0.0054
      5 C           5.0527    2.2028   -1.5109 C.ar    1  UNL1        0.0268
      6 C           6.4611    2.1532   -2.0134 C.ar    1  UNL1        0.1696
      7 N           6.9219    1.7384   -3.1811 N.ar    1  UNL1       -0.1279
      8 N           8.3095    1.8936   -3.1942 N.ar    1  UNL1       -0.1218
      9 C           8.6980    2.3812   -2.0279 C.ar    1  UNL1        0.1968
     10 S          10.4146    2.5143   -1.5579 S.3     1  UNL1       -0.0763
     11 C          10.5460    3.1299    0.1490 C.3     1  UNL1        0.0793
     12 C          11.9006    3.4374    0.7560 C.2     1  UNL1        0.2425
     13 O          12.9551    3.3396    0.1067 O.2     1  UNL1       -0.2732
     14 N          11.8582    3.9379    2.0819 N.am    1  UNL1       -0.2063
     15 N          13.0508    4.3136    2.6558 N.2     1  UNL1       -0.1877
     16 C          13.1066    4.6856    3.8933 C.2     1  UNL1        0.0528
     17 C          14.4182    5.0624    4.4921 C.ar    1  UNL1       -0.0054
     18 C          14.7294    4.7250    5.8115 C.ar    1  UNL1       -0.0525
     19 C          15.9482    5.1445    6.3677 C.ar    1  UNL1       -0.0534
     20 C          16.9004    5.8450    5.6039 C.ar    1  UNL1       -0.0178
     21 C          18.2117    6.1864    6.1800 C.ar    1  UNL1       -0.0179
     22 C          19.0464    5.1844    6.7080 C.ar    1  UNL1       -0.0540
     23 C          20.2309    5.5093    7.3739 C.ar    1  UNL1       -0.0612
     24 C          20.6429    6.8367    7.4483 C.ar    1  UNL1       -0.0617
     25 C          19.8554    7.8395    6.8866 C.ar    1  UNL1       -0.0612
     26 C          18.6471    7.5170    6.2617 C.ar    1  UNL1       -0.0540
     27 C          16.5633    6.1856    4.2864 C.ar    1  UNL1       -0.0534
     28 C          15.3380    5.7906    3.7317 C.ar    1  UNL1       -0.0525
     29 N           7.5571    2.6035   -1.2688 N.ar    1  UNL1       -0.2703
     30 C           7.4898    3.0940    0.0408 C.ar    1  UNL1        0.0505
     31 C           7.9790    4.3722    0.3022 C.ar    1  UNL1       -0.0377
     32 C           8.3181    4.6924    1.6156 C.ar    1  UNL1       -0.0598
     33 C           8.0146    3.8068    2.6499 C.ar    1  UNL1       -0.0616
     34 C           7.3789    2.5924    2.3769 C.ar    1  UNL1       -0.0598
     35 C           7.1243    2.2176    1.0629 C.ar    1  UNL1       -0.0377
     36 C           4.5508    3.4108   -0.9946 C.ar    1  UNL1       -0.0054
     37 C           3.4033    3.4431   -0.1818 C.ar    1  UNL1        0.1658
     38 O           3.1391    4.6936    0.3628 O.3     1  UNL1       -0.4913
     39 C           2.0251    4.8326    1.2552 C.3     1  UNL1        0.0790
     40 C           2.6823    2.2515    0.0848 C.ar    1  UNL1        0.2035
     41 O           1.7247    2.4515    1.0255 O.3     1  UNL1       -0.4885
     42 C           0.7114    1.5453    1.2917 C.3     1  UNL1        0.0791
     43 H           1.2272   -1.7036   -0.4319 H       1  UNL1        0.0660
     44 H           0.8738   -0.1653   -1.3195 H       1  UNL1        0.0660
     45 H           0.6166   -0.4464    0.4201 H       1  UNL1        0.0660
     46 H           4.6247    0.0937   -1.7294 H       1  UNL1        0.0662
     47 H          10.0034    2.4658    0.8256 H       1  UNL1        0.0476
     48 H          10.1683    4.1389    0.0775 H       1  UNL1        0.0476
     49 H          10.9960    4.0505    2.6121 H       1  UNL1        0.1772
     50 H          12.2270    4.7419    4.5612 H       1  UNL1        0.0851
     51 H          14.0630    4.1121    6.4117 H       1  UNL1        0.0624
     52 H          16.1598    4.9306    7.4157 H       1  UNL1        0.0624
     53 H          18.7747    4.1353    6.6027 H       1  UNL1        0.0624
     54 H          20.8243    4.7276    7.8415 H       1  UNL1        0.0618
     55 H          21.5785    7.0887    7.9405 H       1  UNL1        0.0618
     56 H          20.1698    8.8777    6.9526 H       1  UNL1        0.0618
     57 H          18.0338    8.3168    5.8533 H       1  UNL1        0.0624
     58 H          17.2600    6.7558    3.6748 H       1  UNL1        0.0624
     59 H          15.1067    6.0554    2.7025 H       1  UNL1        0.0624
     60 H           8.2845    5.0275   -0.5165 H       1  UNL1        0.0638
     61 H           8.9389    5.5668    1.8047 H       1  UNL1        0.0618
     62 H           8.2980    4.0503    3.6698 H       1  UNL1        0.0618
     63 H           7.1396    1.9063    3.1843 H       1  UNL1        0.0618
     64 H           6.7238    1.2283    0.8488 H       1  UNL1        0.0638
     65 H           5.1010    4.3391   -1.1482 H       1  UNL1        0.0662
     66 H           1.9366    5.8650    1.5969 H       1  UNL1        0.0660
     67 H           2.1674    4.2373    2.1689 H       1  UNL1        0.0660
     68 H           1.0828    4.5951    0.7424 H       1  UNL1        0.0660
     69 H          -0.0168    1.9366    2.0036 H       1  UNL1        0.0660
     70 H           1.1822    0.6938    1.7841 H       1  UNL1        0.0660
     71 H           0.1498    1.3913    0.3664 H       1  UNL1        0.0660
@<TRIPOS>BOND
     1     1     2    1
     2     2     3    1
     3     3     4   ar
     4     4     5   ar
     5     5     6    1
     6     6     7   ar
     7     7     8   ar
     8     8     9   ar
     9     9    10    1
    10    10    11    1
    11    11    12    1
    12    12    13    2
    13    12    14   am
    14    14    15    1
    15    15    16    2
    16    16    17    1
    17    17    18   ar
    18    18    19   ar
    19    19    20   ar
    20    20    21    1
    21    21    22   ar
    22    22    23   ar
    23    23    24   ar
    24    24    25   ar
    25    25    26   ar
    26    21    26   ar
    27    20    27   ar
    28    27    28   ar
    29    17    28   ar
    30     9    29   ar
    31     6    29   ar
    32    29    30    1
    33    30    31   ar
    34    31    32   ar
    35    32    33   ar
    36    33    34   ar
    37    34    35   ar
    38    30    35   ar
    39     5    36   ar
    40    36    37   ar
    41    37    38    1
    42    38    39    1
    43    37    40   ar
    44     3    40   ar
    45    40    41    1
    46    41    42    1
    47     1    43    1
    48     1    44    1
    49     1    45    1
    50     4    46    1
    51    11    47    1
    52    11    48    1
    53    14    49    1
    54    16    50    1
    55    18    51    1
    56    19    52    1
    57    22    53    1
    58    23    54    1
    59    24    55    1
    60    25    56    1
    61    26    57    1
    62    27    58    1
    63    28    59    1
    64    31    60    1
    65    32    61    1
    66    33    62    1
    67    34    63    1
    68    35    64    1
    69    36    65    1
    70    39    66    1
    71    39    67    1
    72    39    68    1
    73    42    69    1
    74    42    70    1
    75    42    71    1
