@<TRIPOS>MOLECULE
*****
 49 50 0 0 0
SMALL
GASTEIGER

@<TRIPOS>ATOM
      1 C           0.9856   -0.0670   -0.0519 C.3     1  UNL1       -0.0306
      2 C           2.5074   -0.1128   -0.0339 C.3     1  UNL1        0.0900
      3 O           2.9701   -1.3013    0.6559 O.3     1  UNL1       -0.4614
      4 C           4.3406   -1.3904    0.7558 C.2     1  UNL1        0.3412
      5 O           5.0893   -0.5349    0.2894 O.2     1  UNL1       -0.2449
      6 C           4.8682   -2.5651    1.5031 C.ar    1  UNL1        0.0829
      7 C           4.4402   -3.8874    1.4829 C.ar    1  UNL1        0.0278
      8 C           3.3154   -4.5374    0.7486 C.3     1  UNL1       -0.0236
      9 N           5.3147   -4.6416    2.2596 N.ar    1  UNL1       -0.3522
     10 C           6.3152   -3.8596    2.8144 C.ar    1  UNL1        0.1283
     11 C           7.4287   -4.3119    3.6789 C.2     1  UNL1        0.3564
     12 O           8.2911   -3.5684    4.1472 O.2     1  UNL1       -0.2433
     13 O           7.4372   -5.6639    3.9303 O.3     1  UNL1       -0.4506
     14 C           8.5332   -6.1327    4.7880 C.3     1  UNL1        0.1698
     15 C           8.4851   -7.6730    5.0332 C.2     1  UNL1        0.2668
     16 O           7.6031   -8.3796    4.5364 O.2     1  UNL1       -0.2705
     17 N           9.4807   -8.2400    5.8376 N.am    1  UNL1       -0.2313
     18 N           9.4754   -9.6695    6.0418 N.am    1  UNL1       -0.2303
     19 C          10.4085  -10.2720    6.8863 C.2     1  UNL1        0.2601
     20 O          11.2897   -9.6433    7.4661 O.2     1  UNL1       -0.2687
     21 C          10.2895  -11.7604    7.0961 C.ar    1  UNL1        0.0382
     22 C          10.0562  -12.6348    6.0256 C.ar    1  UNL1       -0.0482
     23 C           9.9457  -14.0196    6.2450 C.ar    1  UNL1       -0.0427
     24 C          10.0712  -14.5404    7.5324 C.ar    1  UNL1        0.0410
     25 CL          9.8851  -16.2322    7.7973 Cl      1  UNL1       -0.0835
     26 C          10.3444  -13.6909    8.6016 C.ar    1  UNL1       -0.0427
     27 C          10.4664  -12.3065    8.3821 C.ar    1  UNL1       -0.0482
     28 C           6.0376   -2.5567    2.3670 C.ar    1  UNL1       -0.0045
     29 C           6.7931   -1.3117    2.7002 C.3     1  UNL1       -0.0367
     30 H           0.6216    0.8156   -0.5921 H       1  UNL1        0.0262
     31 H           0.5836   -0.0338    0.9656 H       1  UNL1        0.0262
     32 H           0.5759   -0.9588   -0.5355 H       1  UNL1        0.0262
     33 H           2.8798    0.7907    0.4670 H       1  UNL1        0.0695
     34 H           2.8721   -0.1222   -1.0684 H       1  UNL1        0.0695
     35 H           2.7237   -3.8135    0.1800 H       1  UNL1        0.0292
     36 H           2.6396   -5.0447    1.4446 H       1  UNL1        0.0292
     37 H           3.6963   -5.2776    0.0368 H       1  UNL1        0.0292
     38 H           5.2472   -5.6441    2.3863 H       1  UNL1        0.1658
     39 H           8.4719   -5.6255    5.7601 H       1  UNL1        0.0796
     40 H           9.4931   -5.8900    4.3124 H       1  UNL1        0.0796
     41 H          10.2410   -7.7302    6.2875 H       1  UNL1        0.1729
     42 H           8.6785  -10.1676    5.6480 H       1  UNL1        0.1731
     43 H           9.9900  -12.2605    5.0081 H       1  UNL1        0.0625
     44 H           9.7649  -14.6900    5.4071 H       1  UNL1        0.0632
     45 H          10.4616  -14.1002    9.6040 H       1  UNL1        0.0632
     46 H          10.6922  -11.6607    9.2286 H       1  UNL1        0.0625
     47 H           7.6536   -1.4939    3.3415 H       1  UNL1        0.0278
     48 H           6.1346   -0.6120    3.2259 H       1  UNL1        0.0278
     49 H           7.1634   -0.8326    1.7896 H       1  UNL1        0.0278
@<TRIPOS>BOND
     1     1     2    1
     2     2     3    1
     3     3     4    1
     4     4     5    2
     5     4     6    1
     6     6     7   ar
     7     7     8    1
     8     7     9   ar
     9     9    10   ar
    10    10    11    1
    11    11    12    2
    12    11    13    1
    13    13    14    1
    14    14    15    1
    15    15    16    2
    16    15    17   am
    17    17    18    1
    18    18    19   am
    19    19    20    2
    20    19    21    1
    21    21    22   ar
    22    22    23   ar
    23    23    24   ar
    24    24    25    1
    25    24    26   ar
    26    26    27   ar
    27    21    27   ar
    28    10    28   ar
    29     6    28   ar
    30    28    29    1
    31     1    30    1
    32     1    31    1
    33     1    32    1
    34     2    33    1
    35     2    34    1
    36     8    35    1
    37     8    36    1
    38     8    37    1
    39     9    38    1
    40    14    39    1
    41    14    40    1
    42    17    41    1
    43    18    42    1
    44    22    43    1
    45    23    44    1
    46    26    45    1
    47    27    46    1
    48    29    47    1
    49    29    48    1
    50    29    49    1
