@<TRIPOS>MOLECULE
*****
 42 44 0 0 0
SMALL
GASTEIGER

@<TRIPOS>ATOM
      1 C           3.3049    0.7984   -0.9261 C.3     1  UNL1       -0.0190
      2 C           2.4903    0.0880    0.1452 C.3     1  UNL1        0.1741
      3 O           1.0446    0.1705    0.0031 O.3     1  UNL1       -0.4797
      4 C           0.3476    0.3418   -1.1691 C.ar    1  UNL1        0.1253
      5 C           0.8971    0.6185   -2.4326 C.ar    1  UNL1       -0.0162
      6 C           0.1597    0.7991   -3.5920 C.ar    1  UNL1       -0.0127
      7 C          -1.1873    0.7478   -3.4710 C.ar    1  UNL1        0.1665
      8 C          -1.7921    0.5220   -2.2573 C.ar    1  UNL1        0.1697
      9 C          -1.0574    0.3010   -1.0915 C.ar    1  UNL1        0.0256
     10 O          -3.1490    0.5697   -2.3849 O.3     1  UNL1       -0.4525
     11 C          -3.2866    0.9174   -3.7865 C.3     1  UNL1        0.2332
     12 O          -2.0429    0.9441   -4.4981 O.3     1  UNL1       -0.4526
     13 C           2.9502    0.6664    1.5363 C.2     1  UNL1        0.2695
     14 O           2.1817    1.0571    2.4007 O.2     1  UNL1       -0.2702
     15 N           4.3346    0.6950    1.7264 N.am    1  UNL1       -0.2321
     16 N           4.9292    1.3261    2.8656 N.am    1  UNL1       -0.2455
     17 C           6.3211    1.2464    3.0321 C.2     1  UNL1        0.1511
     18 S           7.2534    0.3322    1.9522 S.2     1  UNL1       -0.0171
     19 N           6.8120    1.9536    4.1469 N.am    1  UNL1       -0.2946
     20 C           8.2114    2.1401    4.4396 C.ar    1  UNL1        0.0512
     21 C           8.7187    1.8019    5.7113 C.ar    1  UNL1       -0.0380
     22 C          10.1041    1.8737    5.9779 C.ar    1  UNL1       -0.0459
     23 C          10.9839    2.3023    4.9858 C.ar    1  UNL1        0.0194
     24 BR         12.8461    2.3985    5.3044 Br      1  UNL1       -0.0502
     25 C          10.4943    2.7062    3.7523 C.ar    1  UNL1       -0.0276
     26 C           9.1195    2.6682    3.4971 C.ar    1  UNL1        0.0631
     27 CL          8.6025    3.4834    2.0549 Cl      1  UNL1       -0.0816
     28 H           4.3593    0.9661   -0.7260 H       1  UNL1        0.0270
     29 H           2.8616    1.7820   -1.1252 H       1  UNL1        0.0270
     30 H           3.3407    0.1550   -1.8102 H       1  UNL1        0.0270
     31 H           2.7536   -0.9804    0.1403 H       1  UNL1        0.0829
     32 H           1.9276    0.7847   -2.6474 H       1  UNL1        0.0655
     33 H           0.6578    1.0118   -4.5291 H       1  UNL1        0.0656
     34 H          -1.5691    0.1299   -0.1482 H       1  UNL1        0.0692
     35 H          -3.7324    1.9151   -3.8671 H       1  UNL1        0.1166
     36 H          -3.9365    0.1878   -4.2785 H       1  UNL1        0.1166
     37 H           5.0040    0.3835    1.0250 H       1  UNL1        0.1729
     38 H           4.2740    1.6944    3.5521 H       1  UNL1        0.1718
     39 H           6.1759    2.0634    4.9287 H       1  UNL1        0.1539
     40 H           8.0724    1.4274    6.5026 H       1  UNL1        0.0637
     41 H          10.4941    1.5788    6.9522 H       1  UNL1        0.0629
     42 H          11.1720    3.0776    2.9886 H       1  UNL1        0.0644
@<TRIPOS>BOND
     1     3     4    1
     2     4     5   ar
     3     5     6   ar
     4     6     7   ar
     5     7     8   ar
     6     8     9   ar
     7     4     9   ar
     8     8    10    1
     9    10    11    1
    10    11    12    1
    11     7    12    1
    12     2    13    1
    13    13    14    2
    14    13    15   am
    15    15    16    1
    16    16    17    1
    17    17    18    2
    18    17    19    1
    19    19    20    1
    20    20    21   ar
    21    21    22   ar
    22    22    23   ar
    23    23    24    1
    24    23    25   ar
    25    25    26   ar
    26    20    26   ar
    27    26    27    1
    28     2     3    1
    29     2     1    1
    30     1    28    1
    31     1    29    1
    32     1    30    1
    33     2    31    1
    34     5    32    1
    35     6    33    1
    36     9    34    1
    37    11    35    1
    38    11    36    1
    39    15    37    1
    40    16    38    1
    41    19    39    1
    42    21    40    1
    43    22    41    1
    44    25    42    1
