@<TRIPOS>MOLECULE
*****
 45 48 0 0 0
SMALL
GASTEIGER

@<TRIPOS>ATOM
      1 C           2.9709    0.0778    0.0353 C.3     1  UNL1       -0.0397
      2 C           1.4740    0.0837   -0.0533 C.ar    1  UNL1       -0.0496
      3 C           0.7393    1.2636   -0.0362 C.ar    1  UNL1       -0.0554
      4 C          -0.6600    1.2259   -0.0464 C.ar    1  UNL1       -0.0193
      5 C          -1.3337    0.0024   -0.0441 C.ar    1  UNL1        0.1260
      6 O          -2.6994   -0.0362    0.0017 O.3     1  UNL1       -0.5061
      7 C          -0.6219   -1.1932   -0.0818 C.ar    1  UNL1        0.0418
      8 C          -1.2728   -2.4940   -0.0033 C.ar    1  UNL1        0.0753
      9 N          -2.1577   -2.9966   -0.9357 N.ar    1  UNL1       -0.2758
     10 N          -2.6101   -4.2591   -0.6599 N.ar    1  UNL1       -0.1683
     11 C          -1.9847   -4.5454    0.4847 C.ar    1  UNL1        0.1529
     12 C          -1.1661   -3.5051    0.9141 C.ar    1  UNL1        0.0350
     13 C          -0.4775   -3.8824    2.1542 C.3     1  UNL1        0.0838
     14 C           0.9457   -3.4583    2.0440 C.ar    1  UNL1        0.0127
     15 C           1.4738   -2.5949    3.0215 C.ar    1  UNL1       -0.0537
     16 C           2.8301   -2.2856    3.0171 C.ar    1  UNL1       -0.0613
     17 C           3.6628   -2.8058    2.0230 C.ar    1  UNL1       -0.0590
     18 C           3.1476   -3.6409    1.0331 C.ar    1  UNL1       -0.0261
     19 C           1.8022   -3.9775    1.0595 C.ar    1  UNL1        0.1287
     20 F           1.3291   -4.8086    0.1205 F       1  UNL1       -0.2051
     21 N          -0.7396   -5.3352    2.2208 N.am    1  UNL1       -0.2827
     22 C           0.0893   -6.3043    2.9706 C.3     1  UNL1        0.0391
     23 C           1.2984   -5.7440    3.7503 C.3     1  UNL1        0.0600
     24 O           2.0721   -6.7199    4.4285 O.3     1  UNL1       -0.3935
     25 C          -1.8224   -5.6918    1.3758 C.2     1  UNL1        0.2679
     26 O          -2.4689   -6.7347    1.3995 O.2     1  UNL1       -0.2682
     27 C           0.7759   -1.1224   -0.1311 C.ar    1  UNL1       -0.0462
     28 H           3.3784    1.0919    0.0372 H       1  UNL1        0.0278
     29 H           3.4074   -0.4724   -0.8038 H       1  UNL1        0.0278
     30 H           3.2936   -0.3879    0.9690 H       1  UNL1        0.0278
     31 H           1.2545    2.2200   -0.0241 H       1  UNL1        0.0621
     32 H          -1.2043    2.1636   -0.0457 H       1  UNL1        0.0654
     33 H          -3.0366    0.8687    0.0980 H       1  UNL1        0.2922
     34 H          -2.4620   -2.5362   -1.7875 H       1  UNL1        0.1889
     35 H          -0.9891   -3.4315    3.0130 H       1  UNL1        0.0603
     36 H           0.8392   -2.2046    3.8167 H       1  UNL1        0.0622
     37 H           3.2371   -1.6367    3.7885 H       1  UNL1        0.0618
     38 H           4.7152   -2.5390    2.0076 H       1  UNL1        0.0618
     39 H           3.7748   -4.0312    0.2395 H       1  UNL1        0.0646
     40 H           0.4591   -7.0449    2.2484 H       1  UNL1        0.0487
     41 H          -0.5567   -6.8624    3.6555 H       1  UNL1        0.0487
     42 H           0.9807   -4.9735    4.4614 H       1  UNL1        0.0573
     43 H           2.0225   -5.3149    3.0685 H       1  UNL1        0.0573
     44 H           1.5392   -7.0804    5.1505 H       1  UNL1        0.2095
     45 H           1.3493   -2.0310   -0.2316 H       1  UNL1        0.0628
@<TRIPOS>BOND
     1     1     2    1
     2     2     3   ar
     3     3     4   ar
     4     4     5   ar
     5     5     6    1
     6     5     7   ar
     7     7     8    1
     8     8     9   ar
     9     9    10   ar
    10    10    11   ar
    11    11    12   ar
    12     8    12   ar
    13    12    13    1
    14    13    14    1
    15    14    15   ar
    16    15    16   ar
    17    16    17   ar
    18    17    18   ar
    19    18    19   ar
    20    14    19   ar
    21    19    20    1
    22    13    21    1
    23    21    22    1
    24    22    23    1
    25    23    24    1
    26    21    25   am
    27    11    25    1
    28    25    26    2
    29     7    27   ar
    30     2    27   ar
    31     1    28    1
    32     1    29    1
    33     1    30    1
    34     3    31    1
    35     4    32    1
    36     6    33    1
    37     9    34    1
    38    13    35    1
    39    15    36    1
    40    16    37    1
    41    17    38    1
    42    18    39    1
    43    22    40    1
    44    22    41    1
    45    23    42    1
    46    23    43    1
    47    24    44    1
    48    27    45    1
