REMARK  5 active torsions:
REMARK  status: ('A' for Active; 'I' for Inactive)
REMARK    1  A    between atoms: C_2  and  C_3 
REMARK    2  A    between atoms: C_3  and  N_4 
REMARK       I    between atoms: N_4  and  C_5 
REMARK       I    between atoms: C_5  and  N_7 
REMARK    3  A    between atoms: N_7  and  N_8 
REMARK       I    between atoms: N_8  and  C_9 
REMARK    4  A    between atoms: C_9  and  C_11 
REMARK    5  A    between atoms: C_14  and  N_15 
ROOT
ATOM      1  N   UNL d   1       7.415   0.368  -3.755  0.00  0.00    -0.262 N 
ATOM      2  C   UNL d   1       8.808   0.437  -3.756  0.00  0.00     0.270 C 
ATOM      3  O   UNL d   1       9.402   1.229  -4.486  0.00  0.00    -0.266 OA
ATOM      4  H   UNL d   1       6.948   0.883  -4.503  0.00  0.00     0.190 HD
ENDROOT
BRANCH   2   5
ATOM      5  C   UNL d   1       9.599  -0.563  -2.962  0.00  0.00     0.034 A 
ATOM      6  C   UNL d   1      11.001  -0.549  -2.969  0.00  0.00     0.019 A 
ATOM      7  C   UNL d   1      11.725  -1.543  -2.283  0.00  0.00     0.037 A 
ATOM      8  C   UNL d   1      11.063  -2.567  -1.568  0.00  0.00     0.108 A 
ATOM      9  C   UNL d   1       9.657  -2.597  -1.553  0.00  0.00    -0.028 A 
ATOM     10  C   UNL d   1       8.761  -3.573  -0.845  0.00  0.00     0.050 C 
ATOM     11  C   UNL d   1       8.962  -1.605  -2.284  0.00  0.00     0.026 A 
BRANCH   8  12
ATOM     12  N   UNL d   1      11.909  -3.576  -0.885  0.00  0.00    -0.115 N 
ATOM     13  O   UNL d   1      13.138  -3.446  -0.974  0.00  0.00    -0.532 OA
ATOM     14  O   UNL d   1      11.371  -4.497  -0.261  0.00  0.00    -0.532 OA
ENDBRANCH   8  12
ENDBRANCH   2   5
BRANCH   1  15
ATOM     15  N   UNL d   1       6.640   0.305  -2.549  0.00  0.00    -0.249 N 
ATOM     16  C   UNL d   1       5.257   0.340  -2.641  0.00  0.00     0.334 C 
ATOM     17  N   UNL d   1       4.607   0.182  -1.433  0.00  0.00    -0.342 N 
ATOM     18  O   UNL d   1       4.667   0.472  -3.712  0.00  0.00    -0.246 OA
ATOM     19  H   UNL d   1       5.136   0.066  -0.582  0.00  0.00     0.164 HD
ATOM     20  H   UNL d   1       7.123   0.341  -1.661  0.00  0.00     0.192 HD
BRANCH  17  21
ATOM     21  C   UNL d   1       3.146   0.163  -1.361  0.00  0.00     0.124 C 
BRANCH  21  22
ATOM     22  C   UNL d   1       2.594  -0.032   0.056  0.00  0.00     0.015 C 
ATOM     23  C   UNL d   1       1.067  -0.035   0.075  0.00  0.00     0.006 C 
ENDBRANCH  21  22
ENDBRANCH  17  21
ENDBRANCH   1  15
TORSDOF 5
