REMARK  13 active torsions:
REMARK  status: ('A' for Active; 'I' for Inactive)
REMARK    1  A    between atoms: C_2  and  C_4 
REMARK    2  A    between atoms: C_4  and  C_5 
REMARK    3  A    between atoms: C_5  and  O_6 
REMARK    4  A    between atoms: O_6  and  C_7 
REMARK    5  A    between atoms: C_10  and  C_11 
REMARK       I    between atoms: C_11  and  N_13 
REMARK    6  A    between atoms: N_13  and  C_14 
REMARK    7  A    between atoms: C_14  and  N_16 
REMARK    8  A    between atoms: N_16  and  C_17 
REMARK    9  A    between atoms: C_22  and  C_23 
REMARK       I    between atoms: C_23  and  N_25 
REMARK   10  A    between atoms: N_25  and  C_26 
REMARK   11  A    between atoms: C_26  and  C_27 
REMARK   12  A    between atoms: C_27  and  C_28 
REMARK   13  A    between atoms: C_28  and  O_29 
ROOT
ATOM      1  C   UNL d   1      12.904  -0.326  -4.081  0.00  0.00     0.179 C 
ATOM      2  S   UNL d   1      13.561   0.529  -5.375  0.00  0.00    -0.040 SA
ENDROOT
BRANCH   1   3
ATOM      3  N   UNL d   1      11.537  -0.269  -3.692  0.00  0.00    -0.299 N 
ATOM      4  C   UNL d   1      10.568   0.639  -4.200  0.00  0.00     0.257 C 
ATOM      5  O   UNL d   1      10.813   1.530  -5.012  0.00  0.00    -0.267 OA
ATOM      6  H   UNL d   1      11.278  -0.829  -2.893  0.00  0.00     0.171 HD
BRANCH   4   7
ATOM      7  C   UNL d   1       9.177   0.687  -3.658  0.00  0.00     0.033 C 
ATOM      8  C   UNL d   1       8.326   1.741  -4.062  0.00  0.00     0.020 C 
ATOM      9  C   UNL d   1       6.982   1.778  -3.679  0.00  0.00     0.039 C 
ATOM     10  C   UNL d   1       6.443   0.735  -2.918  0.00  0.00     0.086 C 
ATOM     11  C   UNL d   1       7.304  -0.300  -2.495  0.00  0.00     0.045 C 
ATOM     12  C   UNL d   1       8.671  -0.279  -2.810  0.00  0.00     0.039 C 
ATOM     13 BR   UNL d   1       6.814  -1.948  -1.666  0.00  0.00    -0.048 Br
BRANCH  10  14
ATOM     14  O   UNL d   1       5.081   0.820  -2.770  0.00  0.00    -0.350 OA
BRANCH  14  15
ATOM     15  C   UNL d   1       4.599   0.494  -1.475  0.00  0.00     0.176 C 
BRANCH  15  16
ATOM     16  C   UNL d   1       3.079   0.436  -1.454  0.00  0.00     0.030 C 
BRANCH  16  17
ATOM     17  C   UNL d   1       2.564  -0.026  -0.077  0.00  0.00    -0.021 C 
ATOM     18  C   UNL d   1       1.039  -0.013  -0.069  0.00  0.00     0.009 C 
ATOM     19  C   UNL d   1       3.056  -1.430   0.299  0.00  0.00     0.009 C 
ENDBRANCH  16  17
ENDBRANCH  15  16
ENDBRANCH  14  15
ENDBRANCH  10  14
ENDBRANCH   4   7
ENDBRANCH   1   3
BRANCH   1  20
ATOM     20  N   UNL d   1      13.696  -1.109  -3.189  0.00  0.00    -0.332 N 
ATOM     21  H   UNL d   1      13.306  -1.981  -2.846  0.00  0.00     0.168 HD
BRANCH  20  22
ATOM     22  C   UNL d   1      15.143  -1.069  -3.204  0.00  0.00     0.050 A 
ATOM     23  C   UNL d   1      15.856  -2.242  -3.545  0.00  0.00     0.030 A 
ATOM     24  C   UNL d   1      17.261  -2.245  -3.619  0.00  0.00     0.002 A 
ATOM     25  C   UNL d   1      17.972  -1.072  -3.396  0.00  0.00     0.001 A 
ATOM     26  C   UNL d   1      17.284   0.088  -3.033  0.00  0.00     0.019 A 
ATOM     27  C   UNL d   1      15.876   0.107  -2.903  0.00  0.00     0.058 A 
BRANCH  27  28
ATOM     28  C   UNL d   1      15.269   1.407  -2.438  0.00  0.00     0.253 C 
ATOM     29  O   UNL d   1      15.948   2.442  -2.441  0.00  0.00    -0.268 OA
ATOM     30  N   UNL d   1      13.957   1.406  -2.009  0.00  0.00    -0.357 N 
ATOM     31  H   UNL d   1      13.467   0.524  -2.048  0.00  0.00     0.162 HD
BRANCH  30  32
ATOM     32  C   UNL d   1      13.181   2.636  -1.938  0.00  0.00     0.125 C 
BRANCH  32  33
ATOM     33  C   UNL d   1      11.685   2.387  -1.894  0.00  0.00     0.046 C 
BRANCH  33  34
ATOM     34  C   UNL d   1      10.837   3.618  -1.669  0.00  0.00     0.165 C 
BRANCH  34  35
ATOM     35  O   UNL d   1       9.468   3.240  -1.588  0.00  0.00    -0.401 OA
ATOM     36  H   UNL d   1       9.146   3.191  -2.503  0.00  0.00     0.209 HD
ENDBRANCH  34  35
ENDBRANCH  33  34
ENDBRANCH  32  33
ENDBRANCH  30  32
ENDBRANCH  27  28
ENDBRANCH  20  22
ENDBRANCH   1  20
TORSDOF 13
