REMARK  6 active torsions:
REMARK  status: ('A' for Active; 'I' for Inactive)
REMARK    1  A    between atoms: C_6  and  N_7 
REMARK    2  A    between atoms: C_14  and  C_15 
REMARK    3  A    between atoms: C_15  and  C_16 
REMARK    4  A    between atoms: C_16  and  N_17 
REMARK    5  A    between atoms: N_20  and  C_21 
REMARK    6  A    between atoms: C_24  and  N_25 
ROOT
ATOM      1  C   UNL d   1       3.229   1.046  -2.338  0.00  0.00     0.238 C 
ENDROOT
BRANCH   1   2
ATOM      2  C   UNL d   1       1.847   1.403  -1.779  0.00  0.00     0.070 C 
BRANCH   2   3
ATOM      3  C   UNL d   1       1.710   1.165  -0.264  0.00  0.00     0.222 C 
ATOM      4  O   UNL d   1       0.427   1.648   0.129  0.00  0.00    -0.334 OA
ATOM      5  C   UNL d   1      -0.574   0.717   0.054  0.00  0.00     0.096 A 
ATOM      6  C   UNL d   1      -1.878   1.207   0.044  0.00  0.00     0.041 A 
ATOM      7  C   UNL d   1      -0.333  -0.662   0.027  0.00  0.00     0.070 A 
ATOM      8  C   UNL d   1      -2.953   0.318  -0.007  0.00  0.00     0.039 A 
ATOM      9  C   UNL d   1      -2.707  -1.063  -0.046  0.00  0.00     0.105 A 
ATOM     10  C   UNL d   1      -1.395  -1.561  -0.032  0.00  0.00     0.068 A 
ATOM     11  N   UNL d   1       0.977  -1.141   0.084  0.00  0.00    -0.322 N 
ATOM     12  C   UNL d   1       2.048  -0.292   0.058  0.00  0.00     0.251 C 
ATOM     13  H   UNL d   1       1.170  -2.129   0.209  0.00  0.00     0.169 HD
ATOM     14  O   UNL d   1       3.204  -0.690   0.109  0.00  0.00    -0.270 OA
BRANCH   9  15
ATOM     15  N   UNL d   1      -3.837  -1.998  -0.098  0.00  0.00    -0.116 N 
ATOM     16  O   UNL d   1      -4.977  -1.523  -0.101  0.00  0.00    -0.532 OA
ATOM     17  O   UNL d   1      -3.570  -3.209  -0.149  0.00  0.00    -0.532 OA
ENDBRANCH   9  15
ENDBRANCH   2   3
ENDBRANCH   1   2
BRANCH   1  18
ATOM     18  N   UNL d   1       3.351   1.388  -3.827  0.00  0.00    -0.068 N 
ATOM     19  C   UNL d   1       2.765   2.763  -4.193  0.00  0.00     0.254 C 
ATOM     20  C   UNL d   1       2.980   3.120  -5.671  0.00  0.00     0.150 C 
ATOM     21  N   UNL d   1       4.386   3.012  -6.050  0.00  0.00    -0.378 N 
ATOM     22  C   UNL d   1       4.973   1.683  -5.811  0.00  0.00     0.150 C 
ATOM     23  C   UNL d   1       4.827   1.271  -4.317  0.00  0.00     0.254 C 
ATOM     24  H   UNL d   1       2.817   0.674  -4.342  0.00  0.00     0.280 HD
BRANCH  21  25
ATOM     25  C   UNL d   1       5.199   4.123  -6.207  0.00  0.00     0.030 A 
ATOM     26  C   UNL d   1       6.014   4.231  -7.348  0.00  0.00     0.032 A 
ATOM     27  C   UNL d   1       6.882   5.318  -7.553  0.00  0.00     0.038 A 
ATOM     28  C   UNL d   1       6.904   6.366  -6.632  0.00  0.00     0.103 A 
ATOM     29  C   UNL d   1       6.104   6.294  -5.488  0.00  0.00     0.038 A 
ATOM     30  C   UNL d   1       5.255   5.185  -5.290  0.00  0.00     0.032 A 
BRANCH  28  31
ATOM     31  N   UNL d   1       7.717   7.566  -6.897  0.00  0.00    -0.116 N 
ATOM     32  O   UNL d   1       8.382   7.592  -7.941  0.00  0.00    -0.532 OA
ATOM     33  O   UNL d   1       7.671   8.485  -6.067  0.00  0.00    -0.532 OA
ENDBRANCH  28  31
ENDBRANCH  21  25
ENDBRANCH   1  18
TORSDOF 6
