REMARK  10 active torsions:
REMARK  status: ('A' for Active; 'I' for Inactive)
REMARK    1  A    between atoms: C_2  and  O_3 
REMARK    2  A    between atoms: O_3  and  C_4 
REMARK    3  A    between atoms: C_10  and  C_11 
REMARK       I    between atoms: C_11  and  N_13 
REMARK    4  A    between atoms: N_13  and  C_14 
REMARK    5  A    between atoms: C_14  and  N_16 
REMARK    6  A    between atoms: N_16  and  N_17 
REMARK       I    between atoms: N_17  and  C_18 
REMARK    7  A    between atoms: C_18  and  C_20 
REMARK    8  A    between atoms: C_20  and  O_21 
REMARK    9  A    between atoms: O_21  and  C_22 
REMARK   10  A    between atoms: C_27  and  C_28 
ROOT
ATOM      1  N   UNL d   1       0.489   4.178  -1.239  0.00  0.00    -0.273 N 
ATOM      2  H   UNL d   1       0.133   3.246  -1.044  0.00  0.00     0.189 HD
ENDROOT
BRANCH   1   3
ATOM      3  C   UNL d   1       1.822   4.500  -1.536  0.00  0.00     0.193 C 
ATOM      4  S   UNL d   1       2.252   6.092  -1.891  0.00  0.00    -0.039 SA
BRANCH   3   5
ATOM      5  N   UNL d   1       2.705   3.401  -1.492  0.00  0.00    -0.298 N 
ATOM      6  C   UNL d   1       4.096   3.410  -1.714  0.00  0.00     0.260 C 
ATOM      7  O   UNL d   1       4.735   4.425  -1.999  0.00  0.00    -0.267 OA
ATOM      8  H   UNL d   1       2.307   2.495  -1.276  0.00  0.00     0.171 HD
BRANCH   6   9
ATOM      9  C   UNL d   1       4.910   2.150  -1.600  0.00  0.00     0.067 A 
ATOM     10  C   UNL d   1       6.302   2.267  -1.846  0.00  0.00     0.039 A 
ATOM     11  C   UNL d   1       7.151   1.164  -1.752  0.00  0.00     0.012 A 
ATOM     12  C   UNL d   1       6.637  -0.078  -1.409  0.00  0.00     0.022 A 
ATOM     13 BR   UNL d   1       9.000   1.346  -2.105  0.00  0.00    -0.051 Br
ATOM     14  C   UNL d   1       5.266  -0.213  -1.165  0.00  0.00     0.039 A 
ATOM     15  C   UNL d   1       4.399   0.893  -1.250  0.00  0.00     0.084 A 
BRANCH  15  16
ATOM     16  O   UNL d   1       3.044   0.766  -1.098  0.00  0.00    -0.350 OA
BRANCH  16  17
ATOM     17  C   UNL d   1       2.632  -0.016   0.027  0.00  0.00     0.171 C 
ATOM     18  C   UNL d   1       1.115  -0.005   0.035  0.00  0.00     0.034 C 
ENDBRANCH  16  17
ENDBRANCH  15  16
ENDBRANCH   6   9
ENDBRANCH   3   5
ENDBRANCH   1   3
BRANCH   1  19
ATOM     19  N   UNL d   1      -0.463   5.221  -1.022  0.00  0.00    -0.266 N 
ATOM     20  C   UNL d   1      -1.781   4.914  -0.638  0.00  0.00     0.260 C 
ATOM     21  O   UNL d   1      -2.174   3.740  -0.535  0.00  0.00    -0.269 OA
ATOM     22  H   UNL d   1      -0.190   6.134  -1.405  0.00  0.00     0.190 HD
BRANCH  20  23
ATOM     23  C   UNL d   1      -2.709   6.153  -0.554  0.00  0.00     0.280 C 
BRANCH  23  24
ATOM     24  O   UNL d   1      -4.135   6.058  -0.658  0.00  0.00    -0.341 OA
BRANCH  24  25
ATOM     25  C   UNL d   1      -5.017   7.122  -0.838  0.00  0.00     0.076 A 
ATOM     26  C   UNL d   1      -6.072   7.113   0.104  0.00  0.00     0.037 A 
ATOM     27  C   UNL d   1      -7.204   7.945  -0.011  0.00  0.00     0.003 A 
ATOM     28  C   UNL d   1      -7.303   8.856  -1.047  0.00  0.00     0.001 A 
ATOM     29  C   UNL d   1      -6.299   8.880  -2.001  0.00  0.00     0.010 A 
ATOM     30  C   UNL d   1      -5.156   8.026  -1.935  0.00  0.00    -0.021 A 
BRANCH  30  31
ATOM     31  C   UNL d   1      -4.236   8.250  -3.132  0.00  0.00     0.013 C 
ATOM     32  C   UNL d   1      -3.564   9.629  -3.012  0.00  0.00     0.015 C 
ATOM     33  C   UNL d   1      -3.108   7.294  -3.144  0.00  0.00     0.015 C 
ENDBRANCH  30  31
ENDBRANCH  24  25
ENDBRANCH  23  24
ENDBRANCH  20  23
ENDBRANCH   1  19
TORSDOF 10
