@<TRIPOS>MOLECULE
*****
 31 32 0 0 0
SMALL
GASTEIGER

@<TRIPOS>ATOM
      1 C           2.0227   -2.5957    0.7052 C.3     1  UNL1       -0.0650
      2 C           2.2700   -1.6428    1.8607 C.3     1  UNL1       -0.0527
      3 C           3.0740   -0.4078    1.4196 C.3     1  UNL1       -0.0365
      4 C           2.8676    0.7220    2.4480 C.3     1  UNL1       -0.0459
      5 C           3.5919    2.0064    2.0297 C.3     1  UNL1       -0.0266
      6 C           5.0114    1.7315    1.6367 C.ar    1  UNL1       -0.0364
      7 C           6.0782    2.6766    1.5795 C.ar    1  UNL1       -0.0390
      8 C           7.2925    2.1196    1.2059 C.ar    1  UNL1        0.0756
      9 C           8.5580    2.8430    1.0775 C.2     1  UNL1        0.2640
     10 O           8.6503    4.0563    1.3009 O.2     1  UNL1       -0.2683
     11 N           9.6870    2.1223    0.6755 N.am    1  UNL1       -0.2491
     12 N          10.9615    2.7590    0.6228 N.3     1  UNL1       -0.2541
     13 S           7.1130    0.4396    0.9038 S.2     1  UNL1       -0.0883
     14 C           5.4422    0.4746    1.2669 C.ar    1  UNL1       -0.0060
     15 C           4.5788   -0.7559    1.2410 C.3     1  UNL1       -0.0183
     16 H           1.4630   -3.4698    1.0499 H       1  UNL1        0.0230
     17 H           2.9620   -2.9409    0.2655 H       1  UNL1        0.0230
     18 H           1.4356   -2.1016   -0.0759 H       1  UNL1        0.0230
     19 H           2.7968   -2.1676    2.6672 H       1  UNL1        0.0265
     20 H           1.2988   -1.3393    2.2710 H       1  UNL1        0.0265
     21 H           2.6808   -0.0499    0.4565 H       1  UNL1        0.0304
     22 H           3.2312    0.3894    3.4286 H       1  UNL1        0.0271
     23 H           1.7972    0.9373    2.5603 H       1  UNL1        0.0271
     24 H           3.5555    2.7211    2.8590 H       1  UNL1        0.0314
     25 H           3.0657    2.4596    1.1802 H       1  UNL1        0.0314
     26 H           5.9717    3.7302    1.8131 H       1  UNL1        0.0633
     27 H           9.6318    1.1116    0.5746 H       1  UNL1        0.1690
     28 H          10.8088    3.7563    0.8391 H       1  UNL1        0.1405
     29 H          11.2885    2.7578   -0.3464 H       1  UNL1        0.1405
     30 H           4.8999   -1.4202    2.0530 H       1  UNL1        0.0321
     31 H           4.7161   -1.2978    0.2978 H       1  UNL1        0.0321
@<TRIPOS>BOND
     1     1     2    1
     2     3     4    1
     3     4     5    1
     4     5     6    1
     5     6     7   ar
     6     7     8   ar
     7     8     9    1
     8     9    10    2
     9     9    11   am
    10    11    12    1
    11     8    13   ar
    12    13    14   ar
    13     6    14   ar
    14    14    15    1
    15     3    15    1
    16     3     2    1
    17     1    16    1
    18     1    17    1
    19     1    18    1
    20     2    19    1
    21     2    20    1
    22     3    21    1
    23     4    22    1
    24     4    23    1
    25     5    24    1
    26     5    25    1
    27     7    26    1
    28    11    27    1
    29    12    28    1
    30    12    29    1
    31    15    30    1
    32    15    31    1
