REMARK  9 active torsions:
REMARK  status: ('A' for Active; 'I' for Inactive)
REMARK    1  A    between atoms: C_2  and  C_3 
REMARK    2  A    between atoms: C_3  and  C_4 
REMARK    3  A    between atoms: C_4  and  O_5 
REMARK    4  A    between atoms: O_5  and  C_6 
REMARK    5  A    between atoms: C_9  and  C_10 
REMARK    6  A    between atoms: C_12  and  C_13 
REMARK       I    between atoms: C_13  and  N_15 
REMARK    7  A    between atoms: N_15  and  N_16 
REMARK    8  A    between atoms: C_17  and  C_18 
REMARK    9  A    between atoms: C_19  and  O_20 
ROOT
ATOM      1  C   UNL d   1      13.810  -4.661   2.354  0.00  0.00     0.289 C 
ATOM      2  O   UNL d   1      14.915  -4.816   1.835  0.00  0.00    -0.264 OA
ATOM      3  N   UNL d   1      13.629  -4.736   3.775  0.00  0.00    -0.242 N 
ATOM      4  H   UNL d   1      12.720  -4.607   4.204  0.00  0.00     0.192 HD
ENDROOT
BRANCH   1   5
ATOM      5  C   UNL d   1      12.626  -4.389   1.519  0.00  0.00     0.121 A 
ATOM      6  C   UNL d   1      11.311  -4.181   1.864  0.00  0.00     0.071 A 
ATOM      7  C   UNL d   1      10.556  -3.967   0.689  0.00  0.00     0.089 A 
ATOM      8  N   UNL d   1      11.364  -4.028  -0.385  0.00  0.00    -0.174 NA
ATOM      9  N   UNL d   1      12.602  -4.282   0.138  0.00  0.00    -0.272 N 
ATOM     10  H   UNL d   1      13.402  -4.378  -0.485  0.00  0.00     0.189 HD
BRANCH   7  11
ATOM     11  C   UNL d   1       9.113  -3.701   0.636  0.00  0.00    -0.005 C 
ATOM     12  C   UNL d   1       8.244  -4.523  -0.057  0.00  0.00     0.016 C 
ATOM     13  C   UNL d   1       6.912  -4.160  -0.317  0.00  0.00     0.037 C 
ATOM     14  C   UNL d   1       6.354  -3.079   0.339  0.00  0.00     0.068 C 
ATOM     15  C   UNL d   1       7.190  -2.306   1.115  0.00  0.00     0.037 C 
ATOM     16  C   UNL d   1       8.542  -2.619   1.276  0.00  0.00     0.016 C 
BRANCH  14  17
ATOM     17  O   UNL d   1       5.003  -2.888   0.303  0.00  0.00    -0.351 OA
BRANCH  17  18
ATOM     18  C   UNL d   1       4.551  -1.534   0.171  0.00  0.00     0.175 C 
BRANCH  18  19
ATOM     19  C   UNL d   1       3.028  -1.516   0.169  0.00  0.00     0.026 C 
BRANCH  19  20
ATOM     20  C   UNL d   1       2.503  -0.104  -0.011  0.00  0.00    -0.002 C 
ATOM     21  C   UNL d   1       0.994  -0.097  -0.012  0.00  0.00     0.005 C 
ENDBRANCH  19  20
ENDBRANCH  18  19
ENDBRANCH  17  18
ENDBRANCH  14  17
ENDBRANCH   7  11
ENDBRANCH   1   5
BRANCH   3  22
ATOM     22  N   UNL d   1      14.732  -4.998   4.603  0.00  0.00    -0.183 NA
ATOM     23  C   UNL d   1      14.593  -5.074   5.892  0.00  0.00     0.153 C 
BRANCH  23  24
ATOM     24  C   UNL d   1      15.762  -5.343   6.782  0.00  0.00     0.027 C 
ATOM     25  C   UNL d   1      15.617  -6.234   7.859  0.00  0.00     0.078 C 
ATOM     26  C   UNL d   1      16.642  -6.261   8.808  0.00  0.00     0.038 C 
ATOM     27  C   UNL d   1      17.858  -5.644   8.599  0.00  0.00     0.015 C 
ATOM     28  C   UNL d   1      17.990  -4.791   7.550  0.00  0.00    -0.025 C 
ATOM     29  C   UNL d   1      19.146  -4.088   7.536  0.00  0.00     0.009 C 
ATOM     30  C   UNL d   1      17.048  -4.594   6.557  0.00  0.00    -0.015 C 
ATOM     31  C   UNL d   1      19.253  -3.355   6.408  0.00  0.00    -0.016 C 
ATOM     32  C   UNL d   1      19.417  -2.664   5.367  0.00  0.00     0.043 C 
ATOM     33  C   UNL d   1      17.777  -3.609   5.475  0.00  0.00    -0.004 C 
BRANCH  25  34
ATOM     34  O   UNL d   1      14.586  -7.127   8.030  0.00  0.00    -0.360 OA
ATOM     35  H   UNL d   1      13.918  -7.137   7.318  0.00  0.00     0.217 HD
ENDBRANCH  25  34
ENDBRANCH  23  24
ENDBRANCH   3  22
TORSDOF 9
