REMARK  11 active torsions:
REMARK  status: ('A' for Active; 'I' for Inactive)
REMARK    1  A    between atoms: C_2  and  C_3 
REMARK    2  A    between atoms: C_3  and  C_4 
REMARK    3  A    between atoms: C_3  and  N_16 
REMARK    4  A    between atoms: N_8  and  C_9 
REMARK    5  A    between atoms: C_9  and  C_10 
REMARK    6  A    between atoms: N_16  and  C_17 
REMARK    7  A    between atoms: N_16  and  C_23 
REMARK    8  A    between atoms: C_17  and  C_18 
REMARK    9  A    between atoms: C_23  and  C_24 
REMARK   10  A    between atoms: C_28  and  O_29 
REMARK   11  A    between atoms: C_35  and  O_36 
ROOT
ATOM      1  N   UNL d   1       4.685   0.977  -0.357  0.00  0.00    -0.053 N 
ATOM      2  H   UNL d   1       4.854   0.928   0.654  0.00  0.00     0.281 HD
ENDROOT
BRANCH   1   3
ATOM      3  C   UNL d   1       3.068   1.280  -0.522  0.00  0.00     0.260 C 
BRANCH   3   4
ATOM      4  C   UNL d   1       2.335   0.149   0.178  0.00  0.00     0.037 C 
ATOM      5  C   UNL d   1       0.838   0.099   0.071  0.00  0.00     0.007 C 
ENDBRANCH   3   4
BRANCH   3   6
ATOM      6  C   UNL d   1       2.593   2.656  -0.140  0.00  0.00     0.168 C 
ATOM      7  N   UNL d   1       1.831   2.938   0.904  0.00  0.00    -0.145 NA
ATOM      8  N   UNL d   1       1.742   4.297   0.982  0.00  0.00     0.018 NA
ATOM      9  N   UNL d   1       2.427   4.861   0.003  0.00  0.00    -0.003 NA
ATOM     10  N   UNL d   1       2.804   3.850  -0.818  0.00  0.00    -0.257 N 
BRANCH  10  11
ATOM     11  C   UNL d   1       3.570   4.221  -2.028  0.00  0.00     0.186 C 
BRANCH  11  12
ATOM     12  C   UNL d   1       3.826   3.124  -3.131  0.00  0.00    -0.039 C 
ATOM     13  C   UNL d   1       5.126   2.934  -3.574  0.00  0.00     0.009 C 
ATOM     14  C   UNL d   1       5.696   1.609  -4.015  0.00  0.00     0.001 C 
ATOM     15  C   UNL d   1       4.911   0.507  -4.141  0.00  0.00     0.000 C 
ATOM     16  C   UNL d   1       3.568   0.779  -3.972  0.00  0.00     0.001 C 
ATOM     17  C   UNL d   1       3.033   2.059  -3.512  0.00  0.00     0.009 C 
ENDBRANCH  11  12
ENDBRANCH  10  11
ENDBRANCH   3   6
ENDBRANCH   1   3
BRANCH   1  18
ATOM     18  C   UNL d   1       5.057  -0.298  -1.062  0.00  0.00     0.300 C 
BRANCH  18  19
ATOM     19  C   UNL d   1       4.896  -1.509  -0.304  0.00  0.00     0.078 C 
ATOM     20  C   UNL d   1       5.015  -2.806  -0.708  0.00  0.00     0.036 C 
ATOM     21  C   UNL d   1       4.459  -3.546   0.349  0.00  0.00     0.027 C 
ATOM     22  C   UNL d   1       3.976  -2.642   1.268  0.00  0.00     0.142 C 
ATOM     23  O   UNL d   1       4.378  -1.395   0.933  0.00  0.00    -0.325 OA
ENDBRANCH  18  19
ENDBRANCH   1  18
BRANCH   1  24
ATOM     24  C   UNL d   1       5.484   2.056  -0.998  0.00  0.00     0.252 C 
BRANCH  24  25
ATOM     25  C   UNL d   1       6.942   2.278  -1.399  0.00  0.00     0.060 C 
ATOM     26  C   UNL d   1       7.639   2.587  -2.584  0.00  0.00     0.024 C 
ATOM     27  C   UNL d   1       9.008   2.730  -2.658  0.00  0.00     0.033 C 
ATOM     28  C   UNL d   1       9.885   1.895  -2.010  0.00  0.00     0.024 C 
ATOM     29  C   UNL d   1       9.285   4.007  -2.275  0.00  0.00     0.114 C 
ATOM     30  C   UNL d   1      11.109   2.380  -1.599  0.00  0.00     0.065 C 
ATOM     31  C   UNL d   1      11.582   3.532  -2.216  0.00  0.00     0.035 C 
ATOM     32  C   UNL d   1      10.585   4.330  -2.728  0.00  0.00     0.013 C 
ATOM     33  N   UNL d   1       8.664   3.986  -0.972  0.00  0.00    -0.268 NA
ATOM     34  C   UNL d   1       7.686   2.963  -0.520  0.00  0.00     0.212 C 
BRANCH  30  35
ATOM     35  O   UNL d   1      11.613   1.762  -0.509  0.00  0.00    -0.356 OA
ATOM     36  C   UNL d   1      12.941   2.130  -0.229  0.00  0.00     0.210 C 
ENDBRANCH  30  35
BRANCH  34  37
ATOM     37  O   UNL d   1       8.075   1.863   0.352  0.00  0.00    -0.365 OA
ATOM     38  H   UNL d   1       7.693   1.003   0.028  0.00  0.00     0.212 HD
ENDBRANCH  34  37
ENDBRANCH  24  25
ENDBRANCH   1  24
TORSDOF 11
