REMARK  6 active torsions:
REMARK  status: ('A' for Active; 'I' for Inactive)
REMARK    1  A    between atoms: C_2  and  C_3 
REMARK       I    between atoms: C_2  and  N_15 
REMARK    2  A    between atoms: C_4  and  C_5 
REMARK    3  A    between atoms: N_15  and  N_16 
REMARK       I    between atoms: N_16  and  C_17 
REMARK    4  A    between atoms: C_17  and  C_19 
REMARK    5  A    between atoms: C_19  and  N_20 
REMARK       I    between atoms: N_20  and  C_21 
REMARK    6  A    between atoms: C_21  and  C_23 
ROOT
ATOM      1  O   UNL d   1       1.074   0.108   0.017  0.00  0.00    -0.267 OA
ATOM      2  C   UNL d   1       2.305   0.069   0.055  0.00  0.00     0.259 C 
ATOM      3  N   UNL d   1       3.062   0.852  -0.797  0.00  0.00    -0.264 N 
ATOM      4  H   UNL d   1       2.544   1.447  -1.446  0.00  0.00     0.190 HD
ENDROOT
BRANCH   3   5
ATOM      5  N   UNL d   1       4.477   0.928  -0.875  0.00  0.00    -0.266 N 
ATOM      6  C   UNL d   1       5.067   1.778  -1.812  0.00  0.00     0.253 C 
ATOM      7  O   UNL d   1       4.411   2.484  -2.580  0.00  0.00    -0.270 OA
ATOM      8  H   UNL d   1       5.039   0.352  -0.262  0.00  0.00     0.190 HD
BRANCH   6   9
ATOM      9  C   UNL d   1       6.617   1.774  -1.813  0.00  0.00     0.227 C 
BRANCH   9  10
ATOM     10  N   UNL d   1       7.205   2.676  -2.809  0.00  0.00    -0.352 N 
ATOM     11  C   UNL d   1       8.573   2.822  -2.958  0.00  0.00     0.222 C 
ATOM     12  O   UNL d   1       9.364   2.172  -2.277  0.00  0.00    -0.273 OA
ATOM     13  H   UNL d   1       6.560   3.203  -3.390  0.00  0.00     0.162 HD
BRANCH  11  14
ATOM     14  C   UNL d   1       9.033   3.833  -4.035  0.00  0.00     0.078 C 
ATOM     15  C   UNL d   1       8.517   5.240  -3.702  0.00  0.00     0.014 C 
ATOM     16  C   UNL d   1       8.991   6.297  -4.699  0.00  0.00     0.001 C 
ATOM     17  C   UNL d   1      10.508   6.316  -4.828  0.00  0.00     0.000 C 
ATOM     18  C   UNL d   1      11.031   4.934  -5.198  0.00  0.00     0.001 C 
ATOM     19  C   UNL d   1      10.571   3.871  -4.192  0.00  0.00     0.014 C 
ENDBRANCH  11  14
ENDBRANCH   9  10
ENDBRANCH   6   9
ENDBRANCH   3   5
BRANCH   2  20
ATOM     20  C   UNL d   1       3.008  -0.822   1.017  0.00  0.00     0.076 C 
ATOM     21  C   UNL d   1       2.357  -1.612   1.895  0.00  0.00     0.018 C 
BRANCH  21  22
ATOM     22  C   UNL d   1       3.104  -2.495   2.825  0.00  0.00    -0.025 A 
ATOM     23  C   UNL d   1       4.169  -1.928   3.549  0.00  0.00     0.012 A 
ATOM     24  C   UNL d   1       5.005  -2.714   4.335  0.00  0.00     0.002 A 
ATOM     25  C   UNL d   1       4.770  -4.080   4.444  0.00  0.00     0.012 A 
ATOM     26  C   UNL d   1       3.667  -4.669   3.812  0.00  0.00    -0.025 A 
ATOM     27  C   UNL d   1       3.419  -6.042   3.986  0.00  0.00     0.012 A 
ATOM     28  C   UNL d   1       2.809  -3.881   2.995  0.00  0.00    -0.016 A 
ATOM     29  C   UNL d   1       2.328  -6.655   3.377  0.00  0.00     0.001 A 
ATOM     30  C   UNL d   1       1.472  -5.903   2.583  0.00  0.00     0.001 A 
ATOM     31  C   UNL d   1       1.713  -4.538   2.389  0.00  0.00     0.013 A 
ENDBRANCH  21  22
ENDBRANCH   2  20
TORSDOF 6
