REMARK  6 active torsions:
REMARK  status: ('A' for Active; 'I' for Inactive)
REMARK    1  A    between atoms: C_2  and  C_30 
REMARK    2  A    between atoms: C_2  and  N_3 
REMARK       I    between atoms: N_3  and  C_4 
REMARK    3  A    between atoms: C_4  and  C_6 
REMARK    4  A    between atoms: N_19  and  C_20 
REMARK    5  A    between atoms: C_20  and  C_21 
REMARK    6  A    between atoms: C_28  and  N_29 
ROOT
ATOM      1  C   UNL d   1      -1.118   0.373  -1.211  0.00  0.00     0.076 A 
ATOM      2  C   UNL d   1      -1.875   0.931  -0.215  0.00  0.00     0.042 A 
ATOM      3  C   UNL d   1      -3.245   0.970  -0.425  0.00  0.00     0.080 A 
ATOM      4  C   UNL d   1      -4.096   1.599   0.583  0.00  0.00     0.267 A 
ATOM      5  O   UNL d   1      -3.545   2.079   1.581  0.00  0.00    -0.267 OA
ATOM      6  N   UNL d   1      -5.454   1.597   0.339  0.00  0.00    -0.273 N 
ATOM      7  C   UNL d   1      -6.290   2.171   1.293  0.00  0.00     0.102 A 
ATOM      8  C   UNL d   1      -7.616   2.205   1.143  0.00  0.00     0.018 A 
ATOM      9  C   UNL d   1      -8.211   1.639  -0.037  0.00  0.00     0.005 A 
ATOM     10  C   UNL d   1      -7.451   1.076  -0.987  0.00  0.00     0.051 A 
ATOM     11  C   UNL d   1      -5.967   1.028  -0.830  0.00  0.00     0.139 A 
ATOM     12  N   UNL d   1      -5.236   0.471  -1.758  0.00  0.00    -0.212 NA
ATOM     13  C   UNL d   1      -3.846   0.437  -1.577  0.00  0.00     0.149 A 
ATOM     14  N   UNL d   1      -3.066  -0.125  -2.564  0.00  0.00    -0.312 N 
ATOM     15  C   UNL d   1      -1.703  -0.097  -2.414  0.00  0.00     0.118 A 
ENDROOT
BRANCH   1  16
ATOM     16  C   UNL d   1       0.349   0.463  -1.201  0.00  0.00     0.256 C 
ATOM     17  N   UNL d   1       1.061   0.041  -0.112  0.00  0.00    -0.348 N 
ATOM     18  H   UNL d   1       0.601  -0.192   0.759  0.00  0.00     0.163 HD
ATOM     19  O   UNL d   1       0.845   0.852  -2.253  0.00  0.00    -0.268 OA
BRANCH  17  20
ATOM     20  C   UNL d   1       2.535   0.084  -0.067  0.00  0.00     0.114 C 
ATOM     21  C   UNL d   1       3.224   0.478  -1.387  0.00  0.00     0.037 C 
BRANCH  20  22
ATOM     22  C   UNL d   1       2.962   1.043   1.023  0.00  0.00    -0.036 A 
ATOM     23  C   UNL d   1       2.495   2.366   0.985  0.00  0.00     0.009 A 
ATOM     24  C   UNL d   1       2.973   3.316   1.878  0.00  0.00     0.001 A 
ATOM     25  C   UNL d   1       3.840   2.930   2.894  0.00  0.00     0.000 A 
ATOM     26  C   UNL d   1       4.234   1.597   3.007  0.00  0.00     0.001 A 
ATOM     27  C   UNL d   1       3.847   0.665   2.041  0.00  0.00     0.009 A 
ENDBRANCH  20  22
ENDBRANCH  17  20
ENDBRANCH   1  16
BRANCH  15  28
ATOM     28  N   UNL d   1      -0.833  -0.507  -3.404  0.00  0.00    -0.384 N 
ATOM     29  H   UNL d   1      -1.021  -0.430  -4.386  0.00  0.00     0.157 HD
ATOM     30  H   UNL d   1       0.169  -0.547  -3.211  0.00  0.00     0.157 HD
ENDBRANCH  15  28
BRANCH  14  31
ATOM     31  C   UNL d   1      -3.772  -0.764  -3.770  0.00  0.00     0.171 C 
BRANCH  31  32
ATOM     32  C   UNL d   1      -2.896  -1.511  -4.790  0.00  0.00    -0.040 C 
ATOM     33  C   UNL d   1      -2.083  -2.595  -4.375  0.00  0.00     0.010 C 
ATOM     34  C   UNL d   1      -0.899  -2.888  -5.081  0.00  0.00     0.024 C 
ATOM     35  C   UNL d   1      -0.648  -2.287  -6.312  0.00  0.00     0.034 C 
ATOM     36 CL   UNL d   1       0.855  -2.548  -7.106  0.00  0.00    -0.084 Cl
ATOM     37  C   UNL d   1      -1.571  -1.388  -6.845  0.00  0.00     0.024 C 
ATOM     38  C   UNL d   1      -2.660  -0.957  -6.069  0.00  0.00     0.010 C 
ENDBRANCH  31  32
ENDBRANCH  14  31
TORSDOF 6
