REMARK  8 active torsions:
REMARK  status: ('A' for Active; 'I' for Inactive)
REMARK    1  A    between atoms: C_2  and  O_3 
REMARK    2  A    between atoms: O_3  and  C_4 
REMARK    3  A    between atoms: C_6  and  C_7 
REMARK    4  A    between atoms: C_8  and  C_11 
REMARK    5  A    between atoms: C_22  and  O_23 
REMARK    6  A    between atoms: O_23  and  C_24 
REMARK    7  A    between atoms: C_24  and  C_25 
REMARK    8  A    between atoms: C_30  and  N_31 
ROOT
ATOM      1  C   UNL d   1       6.854  -3.975   1.677  0.00  0.00     0.032 C 
ATOM      2  C   UNL d   1       8.097  -4.156   2.191  0.00  0.00     0.056 C 
ATOM      3  C   UNL d   1       9.008  -2.950   2.346  0.00  0.00     0.019 C 
ATOM      4  N   UNL d   1       9.765  -1.949   2.475  0.00  0.00    -0.096 N 
ENDROOT
BRANCH   2   5
ATOM      5  C   UNL d   1       8.815  -5.456   2.596  0.00  0.00     0.342 C 
ATOM      6  N   UNL d   1       9.552  -5.357   3.902  0.00  0.00     0.129 N 
ATOM      7  C   UNL d   1      10.101  -6.479   3.963  0.00  0.00     0.259 C 
ATOM      8  H   UNL d   1      10.218  -4.540   3.808  0.00  0.00     0.320 HD
ATOM      9  C   UNL d   1       9.470  -7.881   4.057  0.00  0.00     0.024 C 
ATOM     10  C   UNL d   1      10.958  -6.628   2.747  0.00  0.00     0.034 C 
ATOM     11  C   UNL d   1      10.338  -8.902   4.101  0.00  0.00    -0.001 C 
ATOM     12  C   UNL d   1      11.740  -8.596   3.987  0.00  0.00     0.001 C 
ATOM     13  C   UNL d   1      12.109  -7.538   3.209  0.00  0.00     0.022 C 
ATOM     14  N   UNL d   1      10.077  -6.258   1.829  0.00  0.00    -0.259 NA
ATOM     15  H   UNL d   1       9.743  -6.907   1.091  0.00  0.00     0.130 HD
ENDBRANCH   2   5
BRANCH   1  16
ATOM     16  C   UNL d   1       6.261  -2.641   1.323  0.00  0.00    -0.032 C 
ATOM     17  C   UNL d   1       4.913  -2.459   1.008  0.00  0.00     0.051 C 
ATOM     18  C   UNL d   1       4.336  -1.156   0.946  0.00  0.00     0.102 C 
ATOM     19  C   UNL d   1       5.170  -0.030   1.244  0.00  0.00     0.102 C 
ATOM     20  C   UNL d   1       6.506  -0.214   1.452  0.00  0.00     0.040 C 
ATOM     21  C   UNL d   1       7.017  -1.472   1.362  0.00  0.00     0.014 C 
BRANCH  18  22
ATOM     22  O   UNL d   1       2.955  -1.228   0.797  0.00  0.00    -0.349 OA
BRANCH  22  23
ATOM     23  C   UNL d   1       2.307  -0.448  -0.209  0.00  0.00     0.171 C 
ATOM     24  C   UNL d   1       0.796  -0.452  -0.236  0.00  0.00     0.034 C 
ENDBRANCH  22  23
ENDBRANCH  18  22
BRANCH  19  25
ATOM     25  O   UNL d   1       4.987   1.328   1.397  0.00  0.00    -0.344 OA
BRANCH  25  26
ATOM     26  C   UNL d   1       3.707   1.632   0.984  0.00  0.00     0.216 C 
BRANCH  26  27
ATOM     27  C   UNL d   1       3.180   3.008   1.007  0.00  0.00    -0.001 C 
ATOM     28  C   UNL d   1       4.031   3.954   0.429  0.00  0.00     0.012 C 
ATOM     29  C   UNL d   1       3.704   5.288   0.506  0.00  0.00     0.001 C 
ATOM     30  C   UNL d   1       2.459   5.666   1.002  0.00  0.00     0.002 C 
ATOM     31  C   UNL d   1       1.530   4.715   1.428  0.00  0.00     0.037 C 
ATOM     32  C   UNL d   1       1.884   3.369   1.444  0.00  0.00     0.111 C 
BRANCH  32  33
ATOM     33  N   UNL d   1       0.844   2.431   1.947  0.00  0.00    -0.115 N 
ATOM     34  O   UNL d   1      -0.326   2.813   1.953  0.00  0.00    -0.532 OA
ATOM     35  O   UNL d   1       1.192   1.309   2.356  0.00  0.00    -0.532 OA
ENDBRANCH  32  33
ENDBRANCH  26  27
ENDBRANCH  25  26
ENDBRANCH  19  25
ENDBRANCH   1  16
TORSDOF 8
