REMARK  8 active torsions:
REMARK  status: ('A' for Active; 'I' for Inactive)
REMARK    1  A    between atoms: C_11  and  C_12 
REMARK    2  A    between atoms: C_12  and  N_13 
REMARK    3  A    between atoms: N_13  and  C_14 
REMARK    4  A    between atoms: N_13  and  C_22 
REMARK    5  A    between atoms: C_14  and  C_15 
REMARK    6  A    between atoms: C_15  and  N_16 
REMARK    7  A    between atoms: C_22  and  N_24 
REMARK    8  A    between atoms: N_24  and  C_25 
ROOT
ATOM      1  N   UNL d   1       0.633   2.123   0.240  0.00  0.00    -0.352 N 
ENDROOT
BRANCH   1   2
ATOM      2  C   UNL d   1       2.169   2.474   0.202  0.00  0.00     0.169 C 
BRANCH   2   3
ATOM      3  C   UNL d   1       3.224   1.422   0.183  0.00  0.00     0.029 C 
ATOM      4  C   UNL d   1       4.559   1.461   0.235  0.00  0.00     0.028 C 
ATOM      5  C   UNL d   1       5.309   0.206   0.099  0.00  0.00    -0.006 C 
ATOM      6  C   UNL d   1       6.576   0.254  -0.280  0.00  0.00     0.053 C 
ATOM      7  C   UNL d   1       4.732  -1.060   0.119  0.00  0.00     0.048 C 
ATOM      8  C   UNL d   1       7.216  -0.929  -0.425  0.00  0.00     0.105 C 
ATOM      9  C   UNL d   1       6.820  -2.011   0.306  0.00  0.00     0.107 C 
ATOM     10  O   UNL d   1       8.548  -0.831  -0.588  0.00  0.00    -0.323 OA
ATOM     11  C   UNL d   1       5.464  -2.260   0.296  0.00  0.00     0.070 C 
ATOM     12  O   UNL d   1       7.935  -2.325   1.089  0.00  0.00    -0.323 OA
ATOM     13  C   UNL d   1       8.774  -1.123   0.780  0.00  0.00     0.352 C 
ATOM     14  N   UNL d   1       3.424  -0.919  -0.220  0.00  0.00    -0.322 N 
ATOM     15  C   UNL d   1       2.980   0.323  -0.751  0.00  0.00     0.253 C 
ATOM     16  H   UNL d   1       2.826  -1.661  -0.001  0.00  0.00     0.169 HD
ATOM     17  O   UNL d   1       2.307   0.535  -1.697  0.00  0.00    -0.268 OA
ENDBRANCH   2   3
ENDBRANCH   1   2
BRANCH   1  18
ATOM     18  C   UNL d   1      -0.013   0.710   0.174  0.00  0.00     0.153 C 
BRANCH  18  19
ATOM     19  C   UNL d   1       0.868  -0.552   0.144  0.00  0.00     0.254 C 
BRANCH  19  20
ATOM     20  N   UNL d   1       0.522  -1.980   0.175  0.00  0.00    -0.066 N 
ATOM     21  C   UNL d   1       1.536  -3.143  -0.478  0.00  0.00     0.261 C 
ATOM     22  C   UNL d   1       0.804  -4.452  -0.331  0.00  0.00     0.195 C 
ATOM     23  O   UNL d   1       0.510  -4.646   1.064  0.00  0.00    -0.388 OA
ATOM     24  C   UNL d   1      -0.373  -3.647   1.594  0.00  0.00     0.195 C 
ATOM     25  C   UNL d   1       0.274  -2.298   1.605  0.00  0.00     0.261 C 
ATOM     26  H   UNL d   1      -0.281  -2.044  -0.463  0.00  0.00     0.280 HD
ENDBRANCH  19  20
ENDBRANCH  18  19
ENDBRANCH   1  18
BRANCH   1  27
ATOM     27  C   UNL d   1      -0.225   3.305   0.178  0.00  0.00     0.174 C 
ATOM     28  S   UNL d   1       0.424   4.877   0.271  0.00  0.00    -0.041 SA
BRANCH  27  29
ATOM     29  N   UNL d   1      -1.616   3.044   0.094  0.00  0.00    -0.333 N 
ATOM     30  H   UNL d   1      -1.963   2.119   0.284  0.00  0.00     0.168 HD
BRANCH  29  31
ATOM     31  C   UNL d   1      -2.632   4.060   0.120  0.00  0.00     0.035 C 
ATOM     32  C   UNL d   1      -2.542   5.172  -0.723  0.00  0.00     0.029 C 
ATOM     33  C   UNL d   1      -3.418   6.250  -0.608  0.00  0.00     0.004 C 
ATOM     34  C   UNL d   1      -4.346   6.270   0.423  0.00  0.00     0.024 C 
ATOM     35  C   UNL d   1      -4.498   5.136   1.220  0.00  0.00     0.036 C 
ATOM     36 CL   UNL d   1      -5.629   5.188   2.521  0.00  0.00    -0.084 Cl
ATOM     37  C   UNL d   1      -3.712   3.989   1.010  0.00  0.00     0.053 C 
ENDBRANCH  29  31
ENDBRANCH  27  29
ENDBRANCH   1  27
TORSDOF 8
