REMARK  9 active torsions:
REMARK  status: ('A' for Active; 'I' for Inactive)
REMARK    1  A    between atoms: C_2  and  O_3 
REMARK    2  A    between atoms: O_3  and  C_4 
REMARK    3  A    between atoms: C_10  and  C_11 
REMARK       I    between atoms: C_11  and  N_13 
REMARK    4  A    between atoms: N_13  and  C_14 
REMARK    5  A    between atoms: C_14  and  N_16 
REMARK    6  A    between atoms: N_16  and  N_17 
REMARK       I    between atoms: N_17  and  C_18 
REMARK    7  A    between atoms: C_18  and  C_20 
REMARK    8  A    between atoms: C_20  and  O_21 
REMARK    9  A    between atoms: O_21  and  C_22 
ROOT
ATOM      1  C   UNL d   1       1.648   4.490  -1.671  0.00  0.00     0.193 C 
ATOM      2  S   UNL d   1       2.118   6.069  -2.049  0.00  0.00    -0.039 SA
ENDROOT
BRANCH   1   3
ATOM      3  N   UNL d   1       2.518   3.377  -1.602  0.00  0.00    -0.298 N 
ATOM      4  C   UNL d   1       3.915   3.367  -1.829  0.00  0.00     0.260 C 
ATOM      5  O   UNL d   1       4.561   4.376  -2.127  0.00  0.00    -0.267 OA
ATOM      6  H   UNL d   1       2.114   2.472  -1.385  0.00  0.00     0.171 HD
BRANCH   4   7
ATOM      7  C   UNL d   1       4.735   2.106  -1.707  0.00  0.00     0.067 A 
ATOM      8  C   UNL d   1       6.129   2.220  -1.955  0.00  0.00     0.039 A 
ATOM      9  C   UNL d   1       6.981   1.119  -1.853  0.00  0.00     0.012 A 
ATOM     10  C   UNL d   1       6.471  -0.121  -1.500  0.00  0.00     0.022 A 
ATOM     11 BR   UNL d   1       8.831   1.300  -2.207  0.00  0.00    -0.051 Br
ATOM     12  C   UNL d   1       5.099  -0.254  -1.256  0.00  0.00     0.039 A 
ATOM     13  C   UNL d   1       4.229   0.851  -1.349  0.00  0.00     0.084 A 
BRANCH  13  14
ATOM     14  O   UNL d   1       2.876   0.723  -1.196  0.00  0.00    -0.350 OA
BRANCH  14  15
ATOM     15  C   UNL d   1       2.469  -0.051  -0.065  0.00  0.00     0.171 C 
ATOM     16  C   UNL d   1       0.952  -0.040  -0.055  0.00  0.00     0.034 C 
ENDBRANCH  14  15
ENDBRANCH  13  14
ENDBRANCH   4   7
ENDBRANCH   1   3
BRANCH   1  17
ATOM     17  N   UNL d   1       0.296   4.224  -1.388  0.00  0.00    -0.273 N 
ATOM     18  H   UNL d   1      -0.102   3.313  -1.162  0.00  0.00     0.189 HD
BRANCH  17  19
ATOM     19  N   UNL d   1      -0.659   5.320  -1.397  0.00  0.00    -0.266 N 
ATOM     20  C   UNL d   1      -2.004   5.117  -1.098  0.00  0.00     0.260 C 
ATOM     21  O   UNL d   1      -2.436   3.994  -0.839  0.00  0.00    -0.269 OA
ATOM     22  H   UNL d   1      -0.276   6.225  -1.671  0.00  0.00     0.190 HD
BRANCH  20  23
ATOM     23  C   UNL d   1      -2.893   6.401  -1.148  0.00  0.00     0.280 C 
BRANCH  23  24
ATOM     24  O   UNL d   1      -4.288   6.088  -0.993  0.00  0.00    -0.341 OA
BRANCH  24  25
ATOM     25  C   UNL d   1      -5.219   7.105  -1.039  0.00  0.00     0.081 A 
ATOM     26  C   UNL d   1      -5.356   7.995  -2.121  0.00  0.00    -0.028 A 
ATOM     27  C   UNL d   1      -4.510   7.979  -3.358  0.00  0.00     0.051 C 
ATOM     28  C   UNL d   1      -6.384   8.966  -2.101  0.00  0.00     0.009 A 
ATOM     29  C   UNL d   1      -7.308   9.027  -1.066  0.00  0.00     0.001 A 
ATOM     30  C   UNL d   1      -7.224   8.108  -0.032  0.00  0.00     0.009 A 
ATOM     31  C   UNL d   1      -6.197   7.140  -0.008  0.00  0.00    -0.028 A 
ATOM     32  C   UNL d   1      -6.203   6.164   1.139  0.00  0.00     0.051 C 
ENDBRANCH  24  25
ENDBRANCH  23  24
ENDBRANCH  20  23
ENDBRANCH  17  19
ENDBRANCH   1  17
TORSDOF 9
