@<TRIPOS>MOLECULE
*****
 43 44 0 0 0
SMALL
GASTEIGER

@<TRIPOS>ATOM
      1 C           1.1260   -0.0275    0.0373 C.3     1  UNL1       -0.0570
      2 C           2.6521   -0.0718   -0.0298 C.3     1  UNL1        0.0215
      3 C           3.0931   -0.9459   -1.1942 C.2     1  UNL1        0.2169
      4 O           2.2628   -1.4934   -1.9186 O.2     1  UNL1       -0.2755
      5 N           4.4688   -1.1079   -1.3298 N.am    1  UNL1       -0.2855
      6 C           5.0087   -1.9227   -2.3548 C.ar    1  UNL1        0.0335
      7 C           6.0534   -2.8177   -2.1089 C.ar    1  UNL1       -0.0387
      8 C           6.5458   -3.6502   -3.1465 C.ar    1  UNL1       -0.0387
      9 C           5.9827   -3.6088   -4.4325 C.ar    1  UNL1        0.0338
     10 N           6.3900   -4.5360   -5.4423 N.am    1  UNL1       -0.2815
     11 C           5.8572   -4.5907   -6.7274 C.2     1  UNL1        0.2483
     12 O           4.9794   -3.8579   -7.1940 O.2     1  UNL1       -0.2699
     13 C           6.3832   -5.5910   -7.6864 C.ar    1  UNL1        0.0371
     14 C           6.6332   -5.1533   -9.0007 C.ar    1  UNL1       -0.0490
     15 C           6.9899   -6.0586  -10.0089 C.ar    1  UNL1       -0.0523
     16 C           7.1546   -7.4084   -9.6901 C.ar    1  UNL1       -0.0038
     17 C           7.7053   -8.3544  -10.6949 C.2     1  UNL1        0.0736
     18 N           7.9355   -9.5960  -10.3952 N.2     1  UNL1       -0.0928
     19 O           8.5120  -10.2590  -11.4926 O.2     1  UNL1       -0.3971
     20 C           8.7482  -11.6195  -11.1278 C.3     1  UNL1        0.1072
     21 C           6.8622   -7.8529   -8.3915 C.ar    1  UNL1       -0.0523
     22 C           6.4675   -6.9512   -7.3897 C.ar    1  UNL1       -0.0490
     23 C           4.9930   -2.6532   -4.6636 C.ar    1  UNL1       -0.0387
     24 C           4.5042   -1.8350   -3.6455 C.ar    1  UNL1       -0.0387
     25 H           0.7763    0.5994    0.8619 H       1  UNL1        0.0234
     26 H           0.7140   -1.0342    0.1771 H       1  UNL1        0.0234
     27 H           0.7065    0.3691   -0.8949 H       1  UNL1        0.0234
     28 H           3.0453   -0.4799    0.9073 H       1  UNL1        0.0356
     29 H           3.0419    0.9426   -0.1643 H       1  UNL1        0.0356
     30 H           5.0745   -0.8354   -0.5673 H       1  UNL1        0.1548
     31 H           6.4354   -2.9475   -1.0990 H       1  UNL1        0.0637
     32 H           7.3589   -4.3345   -2.9148 H       1  UNL1        0.0637
     33 H           7.1041   -5.2085   -5.1884 H       1  UNL1        0.1551
     34 H           6.5316   -4.0934   -9.2373 H       1  UNL1        0.0625
     35 H           7.1293   -5.6911  -11.0229 H       1  UNL1        0.0624
     36 H           7.9478   -7.9509  -11.6963 H       1  UNL1        0.0869
     37 H           9.1884  -12.1428  -11.9821 H       1  UNL1        0.0687
     38 H           7.8073  -12.1144  -10.8661 H       1  UNL1        0.0687
     39 H           9.4483  -11.6800  -10.2876 H       1  UNL1        0.0687
     40 H           6.9334   -8.9139   -8.1606 H       1  UNL1        0.0624
     41 H           6.1940   -7.3305   -6.4100 H       1  UNL1        0.0625
     42 H           4.5420   -2.5051   -5.6357 H       1  UNL1        0.0637
     43 H           3.7179   -1.1270   -3.8950 H       1  UNL1        0.0637
@<TRIPOS>BOND
     1     1     2    1
     2     2     3    1
     3     3     4    2
     4     3     5   am
     5     5     6    1
     6     6     7   ar
     7     7     8   ar
     8     8     9   ar
     9     9    10    1
    10    10    11   am
    11    11    12    2
    12    11    13    1
    13    13    14   ar
    14    14    15   ar
    15    15    16   ar
    16    16    17    1
    17    17    18    2
    18    18    19    1
    19    19    20    1
    20    16    21   ar
    21    21    22   ar
    22    13    22   ar
    23     9    23   ar
    24    23    24   ar
    25     6    24   ar
    26     1    25    1
    27     1    26    1
    28     1    27    1
    29     2    28    1
    30     2    29    1
    31     5    30    1
    32     7    31    1
    33     8    32    1
    34    10    33    1
    35    14    34    1
    36    15    35    1
    37    17    36    1
    38    20    37    1
    39    20    38    1
    40    20    39    1
    41    21    40    1
    42    22    41    1
    43    23    42    1
    44    24    43    1
