@<TRIPOS>MOLECULE
*****
 52 54 0 0 0
SMALL
GASTEIGER

@<TRIPOS>ATOM
      1 C           0.9580    0.0462   -0.0534 C.3     1  UNL1        0.0209
      2 C           2.4517    0.1167   -0.0302 C.ar    1  UNL1        0.1838
      3 C           3.1464    1.3334    0.0003 C.ar    1  UNL1        0.0450
      4 C           4.5310    1.3251   -0.0041 C.ar    1  UNL1        0.1333
      5 N           5.2850    2.4709   -0.0670 N.pl3   1  UNL1       -0.3147
      6 C           5.7879    2.8347   -1.3910 C.3     1  UNL1        0.0152
      7 C           7.2415    3.2605   -1.2384 C.3     1  UNL1       -0.0186
      8 C           7.3690    4.4587   -0.2830 C.3     1  UNL1        0.0260
      9 N           6.8370    5.6856   -0.8833 N.am    1  UNL1       -0.3121
     10 C           7.3130    6.2025   -2.0713 C.2     1  UNL1        0.2163
     11 O           8.2546    5.6947   -2.6853 O.2     1  UNL1       -0.2755
     12 C           6.6404    7.4668   -2.6015 C.3     1  UNL1        0.0356
     13 C           5.1614    7.5876   -2.2136 C.3     1  UNL1       -0.0419
     14 C           4.5367    8.8901   -2.6978 C.3     1  UNL1       -0.0524
     15 C           5.3427   10.0950   -2.2235 C.3     1  UNL1       -0.0530
     16 C           6.7941    9.9920   -2.6784 C.3     1  UNL1       -0.0524
     17 C           7.4427    8.7008   -2.1825 C.3     1  UNL1       -0.0419
     18 C           6.6729    4.1302    1.0594 C.3     1  UNL1       -0.0186
     19 C           5.2334    3.5991    0.8666 C.3     1  UNL1        0.0152
     20 N           5.1955    0.1485   -0.0440 N.ar    1  UNL1       -0.1757
     21 C           4.4858   -1.0076   -0.0464 C.ar    1  UNL1        0.2768
     22 C           5.2161   -2.3190   -0.0507 C.3     1  UNL1        0.0406
     23 N           3.1461   -1.0342   -0.0449 N.ar    1  UNL1       -0.1960
     24 H           0.5177    1.0479   -0.0607 H       1  UNL1        0.0336
     25 H           0.5916   -0.4804    0.8332 H       1  UNL1        0.0336
     26 H           0.6108   -0.4824   -0.9473 H       1  UNL1        0.0336
     27 H           2.6052    2.2735   -0.0232 H       1  UNL1        0.0714
     28 H           5.1852    3.6598   -1.7970 H       1  UNL1        0.0465
     29 H           5.7177    2.0093   -2.1068 H       1  UNL1        0.0465
     30 H           7.6488    3.4805   -2.2273 H       1  UNL1        0.0298
     31 H           7.8260    2.4246   -0.8364 H       1  UNL1        0.0298
     32 H           8.4335    4.6515   -0.0929 H       1  UNL1        0.0499
     33 H           6.1836    6.2298   -0.3394 H       1  UNL1        0.1490
     34 H           6.6793    7.3876   -3.6989 H       1  UNL1        0.0394
     35 H           5.0454    7.5655   -1.1254 H       1  UNL1        0.0272
     36 H           4.6024    6.7317   -2.6100 H       1  UNL1        0.0272
     37 H           3.5115    8.9603   -2.3177 H       1  UNL1        0.0265
     38 H           4.4792    8.8895   -3.7922 H       1  UNL1        0.0265
     39 H           5.3067   10.1569   -1.1283 H       1  UNL1        0.0265
     40 H           4.8935   11.0151   -2.6121 H       1  UNL1        0.0265
     41 H           7.3610   10.8545   -2.3117 H       1  UNL1        0.0265
     42 H           6.8325   10.0256   -3.7746 H       1  UNL1        0.0265
     43 H           7.5344    8.7300   -1.0901 H       1  UNL1        0.0272
     44 H           8.4638    8.6359   -2.5792 H       1  UNL1        0.0272
     45 H           6.6729    5.0080    1.7178 H       1  UNL1        0.0298
     46 H           7.2614    3.3545    1.5694 H       1  UNL1        0.0298
     47 H           4.6075    4.4052    0.4612 H       1  UNL1        0.0465
     48 H           4.8147    3.3150    1.8385 H       1  UNL1        0.0465
     49 H           6.2998   -2.1695   -0.0454 H       1  UNL1        0.0354
     50 H           4.9532   -2.9016   -0.9400 H       1  UNL1        0.0354
     51 H           4.9469   -2.9059    0.8342 H       1  UNL1        0.0354
     52 H           2.6671   -1.9334   -0.0593 H       1  UNL1        0.4544
@<TRIPOS>UNITY_ATOM_ATTR
23 1
charge 1
@<TRIPOS>BOND
     1     1     2    1
     2     2     3   ar
     3     3     4   ar
     4     4     5    1
     5     5     6    1
     6     6     7    1
     7     7     8    1
     8     8     9    1
     9     9    10   am
    10    10    11    2
    11    10    12    1
    12    12    13    1
    13    13    14    1
    14    14    15    1
    15    15    16    1
    16    16    17    1
    17    12    17    1
    18     8    18    1
    19    18    19    1
    20     5    19    1
    21     4    20   ar
    22    20    21   ar
    23    21    22    1
    24    21    23   ar
    25     2    23   ar
    26     1    24    1
    27     1    25    1
    28     1    26    1
    29     3    27    1
    30     6    28    1
    31     6    29    1
    32     7    30    1
    33     7    31    1
    34     8    32    1
    35     9    33    1
    36    12    34    1
    37    13    35    1
    38    13    36    1
    39    14    37    1
    40    14    38    1
    41    15    39    1
    42    15    40    1
    43    16    41    1
    44    16    42    1
    45    17    43    1
    46    17    44    1
    47    18    45    1
    48    18    46    1
    49    19    47    1
    50    19    48    1
    51    22    49    1
    52    22    50    1
    53    22    51    1
    54    23    52    1
