@<TRIPOS>MOLECULE
*****
 57 58 0 0 0
SMALL
GASTEIGER

@<TRIPOS>ATOM
      1 C           1.0994    0.0532    0.0041 C.3     1  UNL1       -0.0307
      2 C           2.6157    0.0638   -0.0038 C.3     1  UNL1        0.0868
      3 O           3.0696   -0.9526   -0.8973 O.3     1  UNL1       -0.4922
      4 C           4.4239   -1.1606   -0.9141 C.ar    1  UNL1        0.1212
      5 C           4.9652   -1.5171   -2.1526 C.ar    1  UNL1       -0.0199
      6 C           6.3031   -1.8833   -2.2446 C.ar    1  UNL1       -0.0576
      7 C           7.1057   -1.8385   -1.1013 C.ar    1  UNL1       -0.0494
      8 C           6.5763   -1.4812    0.1617 C.ar    1  UNL1        0.0405
      9 C           7.4943   -1.5371    1.3504 C.2     1  UNL1        0.2497
     10 O           8.6538   -1.8630    1.0876 O.2     1  UNL1       -0.2698
     11 N           7.0369   -1.2469    2.6607 N.am    1  UNL1       -0.2627
     12 C           7.8053   -1.2819    3.8462 C.2     1  UNL1        0.1533
     13 S           9.4440   -1.6822    3.9311 S.2     1  UNL1       -0.0170
     14 N           7.1122   -0.9493    5.0255 N.am    1  UNL1       -0.2453
     15 N           7.8408   -0.9420    6.2779 N.am    1  UNL1       -0.2311
     16 C           7.2270   -0.6999    7.4965 C.2     1  UNL1        0.2601
     17 O           6.0229   -0.4498    7.6035 O.2     1  UNL1       -0.2687
     18 C           8.1012   -0.7168    8.7226 C.ar    1  UNL1        0.0383
     19 C           7.6402   -1.2000    9.9627 C.ar    1  UNL1       -0.0478
     20 C           8.4150   -1.0701   11.1488 C.ar    1  UNL1       -0.0398
     21 C           9.6931   -0.5043   11.1012 C.ar    1  UNL1        0.0334
     22 N          10.5317   -0.4649   12.2650 N.am    1  UNL1       -0.2855
     23 C          11.8693   -0.0906   12.2207 C.2     1  UNL1        0.2174
     24 O          12.4621    0.1947   11.1807 O.2     1  UNL1       -0.2755
     25 C          12.6566   -0.0772   13.5268 C.3     1  UNL1        0.0266
     26 C          14.0577    0.5546   13.2750 C.3     1  UNL1       -0.0385
     27 C          13.9536    2.0257   12.8374 C.3     1  UNL1       -0.0622
     28 C          14.9482    0.4772   14.5114 C.3     1  UNL1       -0.0622
     29 C          10.1112    0.0000    9.8607 C.ar    1  UNL1       -0.0398
     30 C           9.3510   -0.1131    8.6892 C.ar    1  UNL1       -0.0478
     31 C           5.2253   -1.1465    0.2380 C.ar    1  UNL1       -0.0078
     32 H           0.7149    0.8571    0.6381 H       1  UNL1        0.0262
     33 H           0.7249   -0.9023    0.3881 H       1  UNL1        0.0262
     34 H           0.7032    0.1719   -1.0083 H       1  UNL1        0.0262
     35 H           2.9469   -0.1053    1.0245 H       1  UNL1        0.0694
     36 H           2.9834    1.0342   -0.3531 H       1  UNL1        0.0694
     37 H           4.3440   -1.5150   -3.0462 H       1  UNL1        0.0654
     38 H           6.7173   -2.2209   -3.1933 H       1  UNL1        0.0619
     39 H           8.1590   -2.1042   -1.2054 H       1  UNL1        0.0625
     40 H           6.0656   -1.0031    2.7701 H       1  UNL1        0.1569
     41 H           6.1303   -0.6888    5.1017 H       1  UNL1        0.1718
     42 H           8.8205   -1.2231    6.2050 H       1  UNL1        0.1731
     43 H           6.6680   -1.6872   10.0162 H       1  UNL1        0.0626
     44 H           7.9877   -1.4084   12.0912 H       1  UNL1        0.0636
     45 H          10.1678   -0.8586   13.1261 H       1  UNL1        0.1548
     46 H          12.7790   -1.1155   13.8599 H       1  UNL1        0.0361
     47 H          12.1231    0.4785   14.3045 H       1  UNL1        0.0361
     48 H          14.5599   -0.0082   12.4741 H       1  UNL1        0.0300
     49 H          13.4735    2.6262   13.6151 H       1  UNL1        0.0232
     50 H          13.3733    2.1624   11.9209 H       1  UNL1        0.0232
     51 H          14.9457    2.4413   12.6334 H       1  UNL1        0.0232
     52 H          14.5134    1.0442   15.3399 H       1  UNL1        0.0232
     53 H          15.9369    0.9012   14.2964 H       1  UNL1        0.0232
     54 H          15.0928   -0.5580   14.8327 H       1  UNL1        0.0232
     55 H          11.0462    0.5344    9.7435 H       1  UNL1        0.0636
     56 H           9.7577    0.3242    7.7824 H       1  UNL1        0.0626
     57 H           4.7827   -0.9146    1.1918 H       1  UNL1        0.0662
@<TRIPOS>BOND
     1     1     2    1
     2     2     3    1
     3     3     4    1
     4     4     5   ar
     5     5     6   ar
     6     6     7   ar
     7     7     8   ar
     8     8     9    1
     9     9    10    2
    10     9    11   am
    11    11    12    1
    12    12    13    2
    13    12    14    1
    14    14    15    1
    15    15    16   am
    16    16    17    2
    17    16    18    1
    18    18    19   ar
    19    19    20   ar
    20    20    21   ar
    21    21    22    1
    22    22    23   am
    23    23    24    2
    24    23    25    1
    25    25    26    1
    26    26    27    1
    27    26    28    1
    28    21    29   ar
    29    29    30   ar
    30    18    30   ar
    31     8    31   ar
    32     4    31   ar
    33     1    32    1
    34     1    33    1
    35     1    34    1
    36     2    35    1
    37     2    36    1
    38     5    37    1
    39     6    38    1
    40     7    39    1
    41    11    40    1
    42    14    41    1
    43    15    42    1
    44    19    43    1
    45    20    44    1
    46    22    45    1
    47    25    46    1
    48    25    47    1
    49    26    48    1
    50    27    49    1
    51    27    50    1
    52    27    51    1
    53    28    52    1
    54    28    53    1
    55    28    54    1
    56    29    55    1
    57    30    56    1
    58    31    57    1
