@<TRIPOS>MOLECULE
*****
 39 41 0 0 0
SMALL
GASTEIGER

@<TRIPOS>ATOM
      1 C           0.8517   -0.2763    0.0462 C.3     1  UNL1       -0.0354
      2 C           2.3165   -0.0612    0.0482 C.ar    1  UNL1        0.0077
      3 C           3.0891    1.1005    0.0481 C.ar    1  UNL1        0.1948
      4 C           2.7452    2.5455    0.0430 C.2     1  UNL1        0.2957
      5 O           3.5854    3.4549    0.0381 O.2     1  UNL1       -0.2653
      6 N           1.3844    2.8676    0.0428 N.am    1  UNL1       -0.2276
      7 N           0.8635    4.1776   -0.0103 N.am    1  UNL1       -0.2300
      8 C          -0.5274    4.3116    0.0438 C.2     1  UNL1        0.2601
      9 O          -1.2923    3.3502    0.1036 O.2     1  UNL1       -0.2687
     10 C          -1.0566    5.7009    0.0681 C.ar    1  UNL1        0.0382
     11 C          -2.0467    6.0626    0.9909 C.ar    1  UNL1       -0.0496
     12 C          -2.3624    7.4131    1.1678 C.ar    1  UNL1       -0.0610
     13 C          -1.8921    8.3603    0.2600 C.ar    1  UNL1       -0.0617
     14 C          -1.0270    7.9720   -0.7619 C.ar    1  UNL1       -0.0610
     15 C          -0.5490    6.6607   -0.8114 C.ar    1  UNL1       -0.0496
     16 O           4.4365    0.7095    0.0469 O.2     1  UNL1       -0.4496
     17 C           4.5058   -0.6713    0.0469 C.ar    1  UNL1        0.1390
     18 C           5.6424   -1.5134    0.0457 C.ar    1  UNL1       -0.0076
     19 C           7.0768   -1.0748    0.0433 C.3     1  UNL1       -0.0362
     20 C           5.3873   -2.9110    0.0459 C.ar    1  UNL1       -0.0553
     21 C           4.0973   -3.4303    0.0453 C.ar    1  UNL1       -0.0607
     22 C           3.0059   -2.5687    0.0475 C.ar    1  UNL1       -0.0507
     23 C           3.2141   -1.1740    0.0481 C.ar    1  UNL1        0.0241
     24 H           0.2349    0.6049    0.0411 H       1  UNL1        0.0279
     25 H           0.5639   -0.8313    0.9429 H       1  UNL1        0.0279
     26 H           0.5666   -0.8364   -0.8481 H       1  UNL1        0.0279
     27 H           0.6471    2.1876    0.0641 H       1  UNL1        0.1732
     28 H           1.5199    4.9493    0.0717 H       1  UNL1        0.1731
     29 H          -2.5543    5.3123    1.5931 H       1  UNL1        0.0625
     30 H          -2.9704    7.7290    2.0132 H       1  UNL1        0.0618
     31 H          -2.2083    9.3982    0.3422 H       1  UNL1        0.0618
     32 H          -0.7050    8.6976   -1.5042 H       1  UNL1        0.0618
     33 H           0.1939    6.3895   -1.5553 H       1  UNL1        0.0625
     34 H           7.1685    0.0120    0.0416 H       1  UNL1        0.0279
     35 H           7.5872   -1.4706   -0.8435 H       1  UNL1        0.0279
     36 H           7.5901   -1.4686    0.9293 H       1  UNL1        0.0279
     37 H           6.2210   -3.6152    0.0463 H       1  UNL1        0.0621
     38 H           3.9335   -4.5057    0.0430 H       1  UNL1        0.0618
     39 H           1.9973   -2.9704    0.0486 H       1  UNL1        0.0625
@<TRIPOS>BOND
     1     1     2    1
     2     2     3   ar
     3     3     4    1
     4     4     5    2
     5     4     6   am
     6     6     7    1
     7     7     8   am
     8     8     9    2
     9     8    10    1
    10    10    11   ar
    11    11    12   ar
    12    12    13   ar
    13    13    14   ar
    14    14    15   ar
    15    10    15   ar
    16     3    16   ar
    17    16    17   ar
    18    17    18   ar
    19    18    19    1
    20    18    20   ar
    21    20    21   ar
    22    21    22   ar
    23    22    23   ar
    24     2    23   ar
    25    17    23   ar
    26     1    24    1
    27     1    25    1
    28     1    26    1
    29     6    27    1
    30     7    28    1
    31    11    29    1
    32    12    30    1
    33    13    31    1
    34    14    32    1
    35    15    33    1
    36    19    34    1
    37    19    35    1
    38    19    36    1
    39    20    37    1
    40    21    38    1
    41    22    39    1
