REMARK  5 active torsions:
REMARK  status: ('A' for Active; 'I' for Inactive)
REMARK    1  A    between atoms: C_7  and  N_8 
REMARK       I    between atoms: N_8  and  C_9 
REMARK       I    between atoms: C_9  and  N_11 
REMARK    2  A    between atoms: N_11  and  C_12 
REMARK    3  A    between atoms: C_14  and  N_15 
REMARK       I    between atoms: N_15  and  C_16 
REMARK    4  A    between atoms: C_16  and  C_18 
REMARK    5  A    between atoms: C_27  and  N_28 
ROOT
ATOM      1  C   UNL d   1      -0.705   6.184  -0.044  0.00  0.00     0.065 A 
ATOM      2  C   UNL d   1      -1.155   7.311   0.714  0.00  0.00     0.061 A 
ATOM      3  C   UNL d   1      -0.529   8.573   0.584  0.00  0.00     0.037 A 
ATOM      4  C   UNL d   1       0.618   8.637  -0.203  0.00  0.00     0.032 A 
ATOM      5  C   UNL d   1       1.066   7.548  -0.943  0.00  0.00     0.034 A 
ATOM      6  C   UNL d   1       0.416   6.314  -0.917  0.00  0.00     0.057 A 
ENDROOT
BRANCH   1   7
ATOM      7  N   UNL d   1      -1.403   4.922   0.061  0.00  0.00    -0.306 N 
ATOM      8  C   UNL d   1      -0.679   3.766   0.332  0.00  0.00     0.325 C 
ATOM      9  N   UNL d   1      -1.355   2.558   0.140  0.00  0.00    -0.308 N 
ATOM     10  O   UNL d   1       0.499   3.833   0.694  0.00  0.00    -0.247 OA
ATOM     11  H   UNL d   1      -2.356   2.575   0.015  0.00  0.00     0.170 HD
ATOM     12  H   UNL d   1      -2.388   4.943   0.273  0.00  0.00     0.170 HD
BRANCH   9  13
ATOM     13  C   UNL d   1      -0.703   1.262   0.117  0.00  0.00     0.042 A 
ATOM     14  C   UNL d   1      -1.429   0.059   0.039  0.00  0.00    -0.035 A 
ATOM     15  C   UNL d   1      -0.729  -1.176   0.003  0.00  0.00     0.009 A 
ATOM     16  C   UNL d   1      -2.928   0.013   0.007  0.00  0.00     0.050 C 
ATOM     17  C   UNL d   1       0.667  -1.236   0.008  0.00  0.00     0.007 A 
ATOM     18  C   UNL d   1       1.398  -0.062   0.045  0.00  0.00    -0.060 A 
ATOM     19  C   UNL d   1       2.898  -0.043   0.017  0.00  0.00     0.048 C 
ATOM     20  C   UNL d   1       0.703   1.152   0.112  0.00  0.00     0.037 A 
ENDBRANCH   9  13
ENDBRANCH   1   7
BRANCH   6  21
ATOM     21  N   UNL d   1       0.869   5.373  -1.823  0.00  0.00    -0.379 N 
ATOM     22  C   UNL d   1       0.001   4.609  -2.694  0.00  0.00     0.123 C 
ATOM     23  C   UNL d   1       0.568   3.206  -2.633  0.00  0.00     0.021 C 
ATOM     24  C   UNL d   1       2.058   3.409  -2.424  0.00  0.00     0.021 C 
ATOM     25  C   UNL d   1       2.186   4.747  -1.679  0.00  0.00     0.123 C 
ENDBRANCH   6  21
BRANCH   3  26
ATOM     26  N   UNL d   1      -1.072   9.764   1.180  0.00  0.00    -0.323 N 
ATOM     27  C   UNL d   1      -0.625  11.056   0.883  0.00  0.00     0.256 C 
ATOM     28  O   UNL d   1       0.319  11.357   0.144  0.00  0.00    -0.267 OA
ATOM     29  H   UNL d   1      -1.926   9.664   1.715  0.00  0.00     0.169 HD
BRANCH  27  30
ATOM     30  C   UNL d   1      -1.302  12.234   1.472  0.00  0.00     0.032 A 
ATOM     31  C   UNL d   1      -1.317  13.422   0.707  0.00  0.00     0.020 A 
ATOM     32  C   UNL d   1      -1.662  14.640   1.289  0.00  0.00     0.043 A 
ATOM     33  C   UNL d   1      -2.067  14.658   2.615  0.00  0.00     0.116 A 
ATOM     34  F   UNL d   1      -2.441  15.818   3.172  0.00  0.00    -0.206 F 
ATOM     35  C   UNL d   1      -2.088  13.489   3.377  0.00  0.00     0.043 A 
ATOM     36  C   UNL d   1      -1.696  12.270   2.811  0.00  0.00     0.020 A 
ENDBRANCH  27  30
ENDBRANCH   3  26
TORSDOF 5
