@<TRIPOS>MOLECULE
*****
 60 63 0 0 0
SMALL
GASTEIGER

@<TRIPOS>ATOM
      1 C           0.9920    0.0478    0.0986 C.3     1  UNL1        0.0788
      2 O           2.4141    0.0015    0.0369 O.3     1  UNL1       -0.4951
      3 C           3.0951   -0.3180    1.1903 C.ar    1  UNL1        0.1211
      4 C           2.7492   -1.5352    1.9258 C.ar    1  UNL1       -0.0137
      5 C           3.4633   -2.0008    2.9748 C.ar    1  UNL1        0.0133
      6 C           4.6527   -1.2347    3.3839 C.ar    1  UNL1        0.2088
      7 C           4.9768   -0.0134    2.6286 C.ar    1  UNL1        0.0544
      8 C           4.1730    0.4066    1.5287 C.ar    1  UNL1       -0.0064
      9 C           6.0914    0.4671    3.1927 C.2     1  UNL1        0.0092
     10 C           6.8285    1.7018    2.7697 C.3     1  UNL1       -0.0092
     11 C           8.0609    1.9955    3.6181 C.3     1  UNL1        0.0155
     12 N           8.7739    3.1809    3.2146 N.am    1  UNL1       -0.3150
     13 C           9.9032    3.5412    3.9196 C.2     1  UNL1        0.2131
     14 O          10.3174    2.8622    4.8585 O.2     1  UNL1       -0.2758
     15 C          10.5743    4.8063    3.4344 C.3     1  UNL1        0.0262
     16 C          11.8222    5.1150    4.2721 C.3     1  UNL1       -0.0187
     17 C          12.5544    6.3687    3.7974 C.3     1  UNL1        0.0700
     18 N          13.8374    6.5266    4.4849 N.3     1  UNL1       -0.2422
     19 N          14.1414    7.9332    4.7470 N.3     1  UNL1       -0.2341
     20 C          13.0934    8.8269    4.2232 C.3     1  UNL1        0.1456
     21 C          12.8289   10.0163    5.1686 C.2     1  UNL1        0.2457
     22 O          12.6254    9.8519    6.3739 O.2     1  UNL1       -0.2728
     23 N          12.7338   11.2677    4.5256 N.am    1  UNL1       -0.2835
     24 C          12.2518   12.3919    5.2433 C.ar    1  UNL1        0.0335
     25 C          12.6922   12.6233    6.5476 C.ar    1  UNL1       -0.0405
     26 C          12.0396   13.5384    7.3674 C.ar    1  UNL1       -0.0600
     27 C          11.0160   14.3219    6.8485 C.ar    1  UNL1       -0.0616
     28 C          10.6782   14.2139    5.4981 C.ar    1  UNL1       -0.0600
     29 C          11.2759   13.2303    4.6952 C.ar    1  UNL1       -0.0405
     30 S          11.5871    7.8592    4.0551 S.3     1  UNL1       -0.1116
     31 C           6.5308   -0.4048    4.3371 C.3     1  UNL1        0.1661
     32 N           5.4985   -1.4588    4.3240 N.2     1  UNL1       -0.2369
     33 H           0.6337    0.4409   -0.8591 H       1  UNL1        0.0660
     34 H           0.6441    0.7170    0.8918 H       1  UNL1        0.0660
     35 H           0.5705   -0.9533    0.2181 H       1  UNL1        0.0660
     36 H           1.8838   -2.0975    1.5854 H       1  UNL1        0.0656
     37 H           3.1805   -2.9135    3.4870 H       1  UNL1        0.0684
     38 H           4.4592    1.2817    0.9554 H       1  UNL1        0.0662
     39 H           6.1446    2.5579    2.8229 H       1  UNL1        0.0327
     40 H           7.1325    1.5955    1.7208 H       1  UNL1        0.0327
     41 H           8.7655    1.1554    3.5684 H       1  UNL1        0.0465
     42 H           7.7771    2.1201    4.6710 H       1  UNL1        0.0465
     43 H           8.4408    3.7647    2.4554 H       1  UNL1        0.1487
     44 H           9.8463    5.6227    3.4924 H       1  UNL1        0.0359
     45 H          10.8570    4.6748    2.3829 H       1  UNL1        0.0359
     46 H          12.5021    4.2534    4.2095 H       1  UNL1        0.0293
     47 H          11.5462    5.2018    5.3327 H       1  UNL1        0.0293
     48 H          12.7407    6.3036    2.7205 H       1  UNL1        0.0589
     49 H          14.5805    6.0160    4.0028 H       1  UNL1        0.1418
     50 H          15.0683    8.2273    4.4364 H       1  UNL1        0.1424
     51 H          13.3786    9.1727    3.2263 H       1  UNL1        0.0686
     52 H          12.6241   11.2809    3.5200 H       1  UNL1        0.1549
     53 H          13.5294   12.0578    6.9483 H       1  UNL1        0.0636
     54 H          12.3231   13.6139    8.4130 H       1  UNL1        0.0618
     55 H          10.4864   15.0131    7.4991 H       1  UNL1        0.0618
     56 H           9.9184   14.8756    5.0883 H       1  UNL1        0.0618
     57 H          10.9016   13.0892    3.6854 H       1  UNL1        0.0636
     58 H           6.4876    0.1140    5.2983 H       1  UNL1        0.1077
     59 H           7.5062   -0.8679    4.1646 H       1  UNL1        0.1077
     60 H           5.4488   -2.2517    4.9567 H       1  UNL1        0.4459
@<TRIPOS>UNITY_ATOM_ATTR
32 1
charge 1
@<TRIPOS>BOND
     1     1     2    1
     2     2     3    1
     3     3     4   ar
     4     4     5   ar
     5     5     6   ar
     6     6     7   ar
     7     7     8   ar
     8     3     8   ar
     9     7     9    2
    10     9    10    1
    11    10    11    1
    12    11    12    1
    13    12    13   am
    14    13    14    2
    15    13    15    1
    16    15    16    1
    17    16    17    1
    18    17    18    1
    19    18    19    1
    20    19    20    1
    21    21    22    2
    22    21    23   am
    23    23    24    1
    24    24    25   ar
    25    25    26   ar
    26    26    27   ar
    27    27    28   ar
    28    28    29   ar
    29    24    29   ar
    30    20    30    1
    31    17    30    1
    32     9    31    1
    33    31    32    1
    34     6    32    2
    35    20    21    1
    36     1    33    1
    37     1    34    1
    38     1    35    1
    39     4    36    1
    40     5    37    1
    41     8    38    1
    42    10    39    1
    43    10    40    1
    44    11    41    1
    45    11    42    1
    46    12    43    1
    47    15    44    1
    48    15    45    1
    49    16    46    1
    50    16    47    1
    51    17    48    1
    52    18    49    1
    53    19    50    1
    54    20    51    1
    55    23    52    1
    56    25    53    1
    57    26    54    1
    58    27    55    1
    59    28    56    1
    60    29    57    1
    61    31    58    1
    62    31    59    1
    63    32    60    1
