REMARK  6 active torsions:
REMARK  status: ('A' for Active; 'I' for Inactive)
REMARK    1  A    between atoms: C_2  and  C_3 
REMARK    2  A    between atoms: C_3  and  N_4 
REMARK    3  A    between atoms: C_5  and  S_6 
REMARK    4  A    between atoms: S_6  and  C_7 
REMARK    5  A    between atoms: C_7  and  C_8 
REMARK       I    between atoms: C_8  and  N_10 
REMARK       I    between atoms: N_10  and  C_11 
REMARK       I    between atoms: C_11  and  N_13 
REMARK    6  A    between atoms: C_22  and  N_23 
ROOT
ATOM      1  N   UNL d   1       4.508   0.452   0.833  0.00  0.00    -0.308 N 
ATOM      2  C   UNL d   1       5.324   1.677   0.734  0.00  0.00     0.173 A 
ATOM      3  N   UNL d   1       6.615   1.593   0.561  0.00  0.00    -0.197 NA
ATOM      4  C   UNL d   1       7.133   0.337   0.480  0.00  0.00     0.212 A 
ATOM      5  O   UNL d   1       8.455   0.023   0.293  0.00  0.00    -0.192 OA
ATOM      6  N   UNL d   1       8.623  -1.360   0.265  0.00  0.00    -0.130 NA
ATOM      7  C   UNL d   1       7.409  -1.899   0.436  0.00  0.00     0.076 A 
ATOM      8  C   UNL d   1       7.269  -3.388   0.451  0.00  0.00     0.074 C 
ATOM      9  C   UNL d   1       6.468  -0.854   0.575  0.00  0.00     0.089 A 
ATOM     10  C   UNL d   1       5.062  -0.770   0.793  0.00  0.00     0.120 A 
ENDROOT
BRANCH   2  11
ATOM     11  S   UNL d   1       4.671   3.345   0.862  0.00  0.00    -0.082 SA
BRANCH  11  12
ATOM     12  C   UNL d   1       2.842   3.509   1.101  0.00  0.00     0.185 C 
BRANCH  12  13
ATOM     13  C   UNL d   1       2.293   4.923   1.214  0.00  0.00     0.235 C 
ATOM     14  O   UNL d   1       3.062   5.876   1.119  0.00  0.00    -0.272 OA
ATOM     15  N   UNL d   1       0.900   5.026   1.403  0.00  0.00    -0.279 N 
ATOM     16  C   UNL d   1       0.296   6.261   1.479  0.00  0.00     0.322 C 
ATOM     17  H   UNL d   1       0.305   4.214   1.462  0.00  0.00     0.173 HD
ATOM     18  O   UNL d   1       0.919   7.318   1.391  0.00  0.00    -0.247 OA
ATOM     19  N   UNL d   1      -1.069   6.282   1.667  0.00  0.00    -0.347 N 
ATOM     20  C   UNL d   1      -1.746   7.576   1.767  0.00  0.00     0.151 C 
ATOM     21  H   UNL d   1      -1.646   5.459   1.743  0.00  0.00     0.163 HD
ENDBRANCH  12  13
ENDBRANCH  11  12
ENDBRANCH   2  11
BRANCH   1  22
ATOM     22  C   UNL d   1       3.087   0.518   1.059  0.00  0.00     0.159 C 
BRANCH  22  23
ATOM     23  C   UNL d   1       2.269  -0.190   0.036  0.00  0.00    -0.017 C 
ATOM     24  C   UNL d   1       0.931  -0.125   0.046  0.00  0.00     0.008 C 
ENDBRANCH  22  23
ENDBRANCH   1  22
BRANCH  10  25
ATOM     25  N   UNL d   1       4.393  -1.898   0.936  0.00  0.00    -0.384 N 
ATOM     26  H   UNL d   1       4.830  -2.802   0.851  0.00  0.00     0.157 HD
ATOM     27  H   UNL d   1       3.399  -1.918   1.119  0.00  0.00     0.157 HD
ENDBRANCH  10  25
TORSDOF 6
