@<TRIPOS>MOLECULE
*****
 56 59 0 0 0
SMALL
GASTEIGER

@<TRIPOS>ATOM
      1 C           2.4738   -0.0028   -0.0134 C.3     1  UNL1       -0.0397
      2 C           0.9725   -0.0096    0.0016 C.ar    1  UNL1       -0.0504
      3 C           0.2513   -1.2124    0.0109 C.ar    1  UNL1       -0.0580
      4 C          -1.1497   -1.2061    0.0106 C.ar    1  UNL1       -0.0466
      5 C          -1.8357    0.0078   -0.0121 C.ar    1  UNL1        0.0677
      6 C          -3.3151    0.0285   -0.0838 C.2     1  UNL1        0.3449
      7 N          -4.0662   -0.5015    0.8669 N.2     1  UNL1        0.0444
      8 N          -5.3557   -0.1446    0.5402 N.pl3   1  UNL1       -0.1245
      9 C          -5.4189    0.4620   -0.7861 C.3     1  UNL1        0.2379
     10 S          -6.3069   -0.5833   -1.9496 S.3     1  UNL1       -0.0828
     11 C          -6.3592    0.4204   -3.5331 C.3     1  UNL1        0.0756
     12 C          -6.9362   -0.4785   -4.6230 C.2     1  UNL1        0.2251
     13 O          -7.0031   -1.6876   -4.4181 O.2     1  UNL1       -0.2748
     14 N          -7.2945    0.0887   -5.8342 N.am    1  UNL1       -0.2855
     15 C          -8.0262   -0.6191   -6.8810 C.3     1  UNL1        0.1565
     16 O          -7.1811   -0.6271   -8.0631 O.3     1  UNL1       -0.3472
     17 C          -6.9302   -2.0087   -8.4426 C.3     1  UNL1        0.0818
     18 C          -5.4335   -2.2562   -8.5071 C.3     1  UNL1       -0.0346
     19 C          -7.6271   -2.8238   -7.4238 C.2     1  UNL1       -0.0111
     20 C          -8.3195   -2.0292   -6.6185 C.2     1  UNL1        0.0652
     21 C          -9.1025   -2.5648   -5.5129 C.2     1  UNL1        0.2578
     22 O          -9.8253   -1.8416   -4.8205 O.2     1  UNL1       -0.2691
     23 N          -8.9365   -3.9083   -5.2665 N.am    1  UNL1       -0.2465
     24 N          -8.2669   -4.8338   -6.1052 N.3     1  UNL1       -0.2334
     25 C          -7.5610   -4.2932   -7.2838 C.3     1  UNL1        0.0464
     26 C          -8.1854   -4.9024   -8.5332 C.3     1  UNL1       -0.0442
     27 N          -4.0275    0.5999   -1.1334 N.pl3   1  UNL1       -0.1907
     28 C          -3.5495    1.5408   -2.0931 C.3     1  UNL1        0.0724
     29 C          -1.1242    1.2117    0.0067 C.ar    1  UNL1       -0.0466
     30 C           0.2727    1.2029    0.0065 C.ar    1  UNL1       -0.0580
     31 H           2.8816   -1.0187   -0.0002 H       1  UNL1        0.0278
     32 H           2.8604    0.5255    0.8645 H       1  UNL1        0.0278
     33 H           2.8392    0.4936   -0.9187 H       1  UNL1        0.0278
     34 H           0.7762   -2.1654    0.0127 H       1  UNL1        0.0620
     35 H          -1.6991   -2.1438    0.0102 H       1  UNL1        0.0626
     36 H          -6.1293   -0.7064    0.8757 H       1  UNL1        0.1999
     37 H          -5.9370    1.4186   -0.6937 H       1  UNL1        0.1142
     38 H          -5.3592    0.6652   -3.8899 H       1  UNL1        0.0473
     39 H          -6.9686    1.3183   -3.3923 H       1  UNL1        0.0473
     40 H          -6.9981    1.0207   -6.0811 H       1  UNL1        0.1515
     41 H          -8.9278   -0.0492   -7.1269 H       1  UNL1        0.0863
     42 H          -7.3755   -2.1809   -9.4320 H       1  UNL1        0.0642
     43 H          -4.9557   -1.9919   -7.5587 H       1  UNL1        0.0258
     44 H          -4.9763   -1.6359   -9.2847 H       1  UNL1        0.0258
     45 H          -5.2070   -3.3039   -8.7341 H       1  UNL1        0.0258
     46 H          -9.3034   -4.2316   -4.3758 H       1  UNL1        0.1693
     47 H          -8.9745   -5.4983   -6.4206 H       1  UNL1        0.1449
     48 H          -6.5099   -4.5985   -7.1966 H       1  UNL1        0.0521
     49 H          -9.2286   -4.5752   -8.6295 H       1  UNL1        0.0248
     50 H          -8.1699   -5.9944   -8.4870 H       1  UNL1        0.0248
     51 H          -7.6539   -4.5953   -9.4396 H       1  UNL1        0.0248
     52 H          -4.3476    1.9062   -2.7376 H       1  UNL1        0.0690
     53 H          -2.7901    1.0707   -2.7247 H       1  UNL1        0.0690
     54 H          -3.1364    2.4303   -1.6162 H       1  UNL1        0.0690
     55 H          -1.6496    2.1608    0.0342 H       1  UNL1        0.0626
     56 H           0.8130    2.1471    0.0116 H       1  UNL1        0.0620
@<TRIPOS>BOND
     1     1     2    1
     2     2     3   ar
     3     3     4   ar
     4     4     5   ar
     5     5     6    1
     6     6     7    2
     7     7     8    1
     8     8     9    1
     9     9    10    1
    10    10    11    1
    11    11    12    1
    12    12    13    2
    13    12    14   am
    14    14    15    1
    15    15    16    1
    16    16    17    1
    17    17    19    1
    18    19    20    2
    19    15    20    1
    20    20    21    1
    21    21    22    2
    22    21    23   am
    23    23    24    1
    24    24    25    1
    25    19    25    1
    26    25    26    1
    27     9    27    1
    28     6    27    1
    29    27    28    1
    30     5    29   ar
    31    29    30   ar
    32     2    30   ar
    33    17    18    1
    34     1    31    1
    35     1    32    1
    36     1    33    1
    37     3    34    1
    38     4    35    1
    39     8    36    1
    40     9    37    1
    41    11    38    1
    42    11    39    1
    43    14    40    1
    44    15    41    1
    45    17    42    1
    46    18    43    1
    47    18    44    1
    48    18    45    1
    49    23    46    1
    50    24    47    1
    51    25    48    1
    52    26    49    1
    53    26    50    1
    54    26    51    1
    55    28    52    1
    56    28    53    1
    57    28    54    1
    58    29    55    1
    59    30    56    1
