@<TRIPOS>MOLECULE
*****
 54 56 0 0 0
SMALL
GASTEIGER

@<TRIPOS>ATOM
      1 C           0.9113    0.0375    0.0576 C.3     1  UNL1        0.0366
      2 O           2.3310    0.0360    0.0056 O.3     1  UNL1       -0.3796
      3 C           2.8052   -0.8298   -1.0301 C.3     1  UNL1        0.0813
      4 C           4.3282   -0.8050   -1.0318 C.3     1  UNL1        0.1129
      5 O           4.8429   -1.7304   -1.9947 O.3     1  UNL1       -0.4886
      6 C           6.2104   -1.8499   -2.0394 C.ar    1  UNL1        0.1345
      7 C           6.7634   -1.8508   -3.3285 C.ar    1  UNL1       -0.0181
      8 C           8.1503   -2.0147   -3.5120 C.ar    1  UNL1       -0.0461
      9 C           9.0247   -2.2015   -2.4174 C.ar    1  UNL1        0.0383
     10 C          10.4950   -2.3885   -2.6735 C.2     1  UNL1        0.2496
     11 O          10.8135   -2.3454   -3.8657 O.2     1  UNL1       -0.2698
     12 N          11.4214   -2.5978   -1.6174 N.am    1  UNL1       -0.2627
     13 C          12.8186   -2.7782   -1.7434 C.2     1  UNL1        0.1533
     14 S          13.6709   -2.7825   -3.2005 S.2     1  UNL1       -0.0170
     15 N          13.5172   -2.9640   -0.5375 N.am    1  UNL1       -0.2455
     16 N          14.9567   -3.1523   -0.5817 N.am    1  UNL1       -0.2349
     17 C          15.6865   -3.3514    0.5800 C.2     1  UNL1        0.2334
     18 O          15.1274   -3.3664    1.6762 O.2     1  UNL1       -0.2739
     19 C          17.2067   -3.5547    0.3790 C.3     1  UNL1        0.0511
     20 C          17.9569   -3.7112    1.7000 C.ar    1  UNL1       -0.0309
     21 C          18.1371   -5.0077    2.2190 C.ar    1  UNL1       -0.0575
     22 C          18.6771   -5.2020    3.4892 C.ar    1  UNL1       -0.0609
     23 C          19.0608   -4.1062    4.2575 C.ar    1  UNL1       -0.0540
     24 C          18.9472   -2.8030    3.7523 C.ar    1  UNL1       -0.0176
     25 C          19.3783   -1.7074    4.5207 C.ar    1  UNL1       -0.0540
     26 C          19.2755   -0.4053    4.0340 C.ar    1  UNL1       -0.0612
     27 C          18.7302   -0.1812    2.7784 C.ar    1  UNL1       -0.0612
     28 C          18.2850   -1.2573    2.0102 C.ar    1  UNL1       -0.0538
     29 C          18.3884   -2.5901    2.4634 C.ar    1  UNL1       -0.0142
     30 C           8.4646   -2.2259   -1.1481 C.ar    1  UNL1       -0.0321
     31 C           7.0764   -2.0735   -0.9553 C.ar    1  UNL1        0.0602
     32 BR          6.5550   -2.3427    0.8575 Br      1  UNL1       -0.0465
     33 H           0.5889    0.7118    0.8555 H       1  UNL1        0.0524
     34 H           0.5367   -0.9677    0.2740 H       1  UNL1        0.0524
     35 H           0.5064    0.3961   -0.8926 H       1  UNL1        0.0524
     36 H           2.4150   -0.5076   -1.9999 H       1  UNL1        0.0593
     37 H           2.4564   -1.8518   -0.8363 H       1  UNL1        0.0593
     38 H           4.5976   -1.0712   -0.0173 H       1  UNL1        0.0720
     39 H           4.7048    0.2072   -1.2193 H       1  UNL1        0.0720
     40 H           6.1245   -1.7302   -4.2057 H       1  UNL1        0.0655
     41 H           8.5431   -2.0001   -4.5317 H       1  UNL1        0.0626
     42 H          11.0591   -2.6225   -0.6762 H       1  UNL1        0.1569
     43 H          13.1212   -2.9820    0.4027 H       1  UNL1        0.1718
     44 H          15.3735   -3.1420   -1.5126 H       1  UNL1        0.1728
     45 H          17.6290   -2.7221   -0.1967 H       1  UNL1        0.0408
     46 H          17.3820   -4.4430   -0.2424 H       1  UNL1        0.0408
     47 H          17.8270   -5.8792    1.6467 H       1  UNL1        0.0621
     48 H          18.7817   -6.2069    3.8913 H       1  UNL1        0.0618
     49 H          19.4486   -4.2783    5.2600 H       1  UNL1        0.0624
     50 H          19.8070   -1.8615    5.5090 H       1  UNL1        0.0624
     51 H          19.6185    0.4322    4.6348 H       1  UNL1        0.0618
     52 H          18.6458    0.8289    2.3877 H       1  UNL1        0.0618
     53 H          17.8577   -1.0266    1.0399 H       1  UNL1        0.0624
     54 H           9.0797   -2.3903   -0.2747 H       1  UNL1        0.0637
@<TRIPOS>BOND
     1     1     2    1
     2     2     3    1
     3     3     4    1
     4     4     5    1
     5     5     6    1
     6     6     7   ar
     7     7     8   ar
     8     8     9   ar
     9     9    10    1
    10    10    11    2
    11    10    12   am
    12    12    13    1
    13    13    14    2
    14    13    15    1
    15    15    16    1
    16    16    17   am
    17    17    18    2
    18    17    19    1
    19    19    20    1
    20    20    21   ar
    21    21    22   ar
    22    22    23   ar
    23    23    24   ar
    24    24    25   ar
    25    25    26   ar
    26    26    27   ar
    27    27    28   ar
    28    28    29   ar
    29    20    29   ar
    30    24    29   ar
    31     9    30   ar
    32    30    31   ar
    33     6    31   ar
    34    31    32    1
    35     1    33    1
    36     1    34    1
    37     1    35    1
    38     3    36    1
    39     3    37    1
    40     4    38    1
    41     4    39    1
    42     7    40    1
    43     8    41    1
    44    12    42    1
    45    15    43    1
    46    16    44    1
    47    19    45    1
    48    19    46    1
    49    21    47    1
    50    22    48    1
    51    23    49    1
    52    25    50    1
    53    26    51    1
    54    27    52    1
    55    28    53    1
    56    30    54    1
