@<TRIPOS>MOLECULE
*****
 29 30 0 0 0
SMALL
GASTEIGER

@<TRIPOS>ATOM
      1 C           2.2081   -0.1168   -0.0009 C.3     1  UNL1       -0.0203
      2 C           0.7270    0.0274    0.0121 C.ar    1  UNL1        0.0636
      3 N          -0.0255   -1.0755    0.0158 N.ar    1  UNL1       -0.1783
      4 N          -1.2848   -0.6184    0.0332 N.ar    1  UNL1       -0.2765
      5 C          -1.3799    0.7483    0.0402 C.ar    1  UNL1        0.0692
      6 C          -2.6640    1.4403   -0.0043 C.ar    1  UNL1        0.0001
      7 C          -3.6338    1.2377    0.9846 C.ar    1  UNL1       -0.0526
      8 C          -4.8843    1.8554    0.8815 C.ar    1  UNL1       -0.0611
      9 C          -5.1545    2.7167   -0.1812 C.ar    1  UNL1       -0.0617
     10 C          -4.1849    2.9457   -1.1542 C.ar    1  UNL1       -0.0611
     11 C          -2.9496    2.3019   -1.0702 C.ar    1  UNL1       -0.0526
     12 C          -0.0726    1.2161    0.0175 C.ar    1  UNL1        0.0027
     13 C           0.3354    2.6593    0.0114 C.3     1  UNL1       -0.0007
     14 C           1.8355    2.9158    0.0121 C.3     1  UNL1        0.0483
     15 O           2.1272    4.3059    0.0125 O.3     1  UNL1       -0.3947
     16 H           2.5226   -1.1640    0.0012 H       1  UNL1        0.0293
     17 H           2.6461    0.3526    0.8849 H       1  UNL1        0.0293
     18 H           2.6324    0.3452   -0.8975 H       1  UNL1        0.0293
     19 H          -2.0391   -1.2908    0.0112 H       1  UNL1        0.1889
     20 H          -3.4239    0.6111    1.8486 H       1  UNL1        0.0624
     21 H          -5.6491    1.6653    1.6306 H       1  UNL1        0.0618
     22 H          -6.1197    3.2124   -0.2504 H       1  UNL1        0.0618
     23 H          -4.3910    3.6147   -1.9853 H       1  UNL1        0.0618
     24 H          -2.2133    2.4677   -1.8526 H       1  UNL1        0.0624
     25 H          -0.1108    3.1635    0.8788 H       1  UNL1        0.0337
     26 H          -0.0960    3.1535   -0.8684 H       1  UNL1        0.0337
     27 H           2.3050    2.4804   -0.8748 H       1  UNL1        0.0560
     28 H           2.2957    2.4884    0.9066 H       1  UNL1        0.0560
     29 H           1.8304    4.6617   -0.8417 H       1  UNL1        0.2094
@<TRIPOS>BOND
     1     1     2    1
     2     2     3   ar
     3     3     4   ar
     4     4     5   ar
     5     5     6    1
     6     6     7   ar
     7     7     8   ar
     8     8     9   ar
     9     9    10   ar
    10    10    11   ar
    11     6    11   ar
    12     5    12   ar
    13     2    12   ar
    14    12    13    1
    15    13    14    1
    16    14    15    1
    17     1    16    1
    18     1    17    1
    19     1    18    1
    20     4    19    1
    21     7    20    1
    22     8    21    1
    23     9    22    1
    24    10    23    1
    25    11    24    1
    26    13    25    1
    27    13    26    1
    28    14    27    1
    29    14    28    1
    30    15    29    1
