@<TRIPOS>MOLECULE
*****
 41 43 0 0 0
SMALL
GASTEIGER

@<TRIPOS>ATOM
      1 C           0.9432    0.0638   -0.0533 C.3     1  UNL1       -0.0381
      2 C           2.4805    0.0269   -0.0822 C.3     1  UNL1        0.0972
      3 N           3.0051   -1.2325    0.4919 N.am    1  UNL1       -0.3003
      4 C           2.6278   -1.6388    1.7682 C.2     1  UNL1        0.2447
      5 O           1.9336   -0.9659    2.5212 O.2     1  UNL1       -0.2702
      6 C           3.1054   -2.9557    2.2668 C.ar    1  UNL1        0.0367
      7 C           2.2650   -3.7122    3.1015 C.ar    1  UNL1       -0.0496
      8 C           2.7713   -4.8099    3.8034 C.ar    1  UNL1       -0.0610
      9 C           4.1003   -5.1906    3.6285 C.ar    1  UNL1       -0.0617
     10 C           4.9272   -4.4645    2.7688 C.ar    1  UNL1       -0.0610
     11 C           4.4349   -3.3445    2.0905 C.ar    1  UNL1       -0.0496
     12 C           2.8698    0.2829   -1.5691 C.2     1  UNL1        0.2373
     13 O           2.0016    0.3038   -2.4545 O.2     1  UNL1       -0.2734
     14 N           4.2000    0.4221   -1.8690 N.am    1  UNL1       -0.2822
     15 C           4.6504    0.6742   -3.2097 C.ar    1  UNL1        0.0596
     16 C           5.8191   -0.0647   -3.5511 C.ar    1  UNL1       -0.0384
     17 C           6.4279    0.1146   -4.7799 C.ar    1  UNL1       -0.0593
     18 C           5.9256    1.0890   -5.6197 C.ar    1  UNL1       -0.0524
     19 C           4.8407    1.8964   -5.2452 C.ar    1  UNL1        0.0022
     20 C           4.6005    3.0355   -6.0118 C.ar    1  UNL1       -0.0511
     21 C           3.7041    3.9907   -5.5859 C.ar    1  UNL1       -0.0430
     22 C           2.6123    3.3820   -5.0766 C.ar    1  UNL1        0.0283
     23 N           2.8026    2.3827   -4.1684 N.ar    1  UNL1       -0.2531
     24 C           4.0231    1.6496   -4.1382 C.ar    1  UNL1        0.0921
     25 H           0.5188   -0.0445    0.9442 H       1  UNL1        0.0252
     26 H           0.5331   -0.7428   -0.6733 H       1  UNL1        0.0252
     27 H           0.5769    1.0163   -0.4535 H       1  UNL1        0.0252
     28 H           2.8719    0.8476    0.5335 H       1  UNL1        0.0592
     29 H           3.4529   -1.9004   -0.1208 H       1  UNL1        0.1498
     30 H           1.2233   -3.4262    3.2384 H       1  UNL1        0.0625
     31 H           2.1416   -5.3438    4.5124 H       1  UNL1        0.0618
     32 H           4.4964   -6.0436    4.1758 H       1  UNL1        0.0618
     33 H           5.9719   -4.7466    2.6645 H       1  UNL1        0.0618
     34 H           5.1106   -2.7482    1.4872 H       1  UNL1        0.0625
     35 H           4.8755    0.0648   -1.1985 H       1  UNL1        0.1549
     36 H           6.2222   -0.8420   -2.9018 H       1  UNL1        0.0637
     37 H           7.3075   -0.4536   -5.0758 H       1  UNL1        0.0618
     38 H           6.4166    1.2610   -6.5740 H       1  UNL1        0.0624
     39 H           5.0087    3.1132   -7.0126 H       1  UNL1        0.0625
     40 H           4.0659    4.5810   -4.7013 H       1  UNL1        0.0633
     41 H           1.6555    3.8640   -5.2757 H       1  UNL1        0.0830
@<TRIPOS>BOND
     1     1     2    1
     2     2     3    1
     3     3     4   am
     4     4     5    2
     5     4     6    1
     6     6     7   ar
     7     7     8   ar
     8     8     9   ar
     9     9    10   ar
    10    10    11   ar
    11     6    11   ar
    12     2    12    1
    13    12    13    2
    14    12    14   am
    15    14    15    1
    16    15    16   ar
    17    16    17   ar
    18    17    18   ar
    19    18    19   ar
    20    19    20   ar
    21    20    21   ar
    22    21    22   ar
    23    22    23   ar
    24    23    24   ar
    25    15    24   ar
    26    19    24   ar
    27     1    25    1
    28     1    26    1
    29     1    27    1
    30     2    28    1
    31     3    29    1
    32     7    30    1
    33     8    31    1
    34     9    32    1
    35    10    33    1
    36    11    34    1
    37    14    35    1
    38    16    36    1
    39    17    37    1
    40    18    38    1
    41    20    39    1
    42    21    40    1
    43    22    41    1
