REMARK  5 active torsions:
REMARK  status: ('A' for Active; 'I' for Inactive)
REMARK       I    between atoms: C_2  and  N_3 
REMARK    1  A    between atoms: C_2  and  C_17 
REMARK    2  A    between atoms: N_3  and  N_4 
REMARK    3  A    between atoms: C_5  and  C_6 
REMARK    4  A    between atoms: C_15  and  O_16 
REMARK    5  A    between atoms: C_22  and  O_23 
ROOT
ATOM      1  N   UNL d   1       2.276  -1.426   2.029  0.00  0.00    -0.183 NA
ATOM      2  C   UNL d   1       2.912  -2.056   2.965  0.00  0.00     0.153 C 
ENDROOT
BRANCH   1   3
ATOM      3  N   UNL d   1       2.984  -0.722   1.077  0.00  0.00    -0.243 N 
ATOM      4  C   UNL d   1       2.255  -0.010   0.120  0.00  0.00     0.274 C 
ATOM      5  O   UNL d   1       1.022  -0.021   0.045  0.00  0.00    -0.266 OA
ATOM      6  H   UNL d   1       3.994  -0.679   1.127  0.00  0.00     0.192 HD
BRANCH   4   7
ATOM      7  C   UNL d   1       3.010   0.798  -0.886  0.00  0.00     0.066 A 
ATOM      8  C   UNL d   1       4.034   0.232  -1.660  0.00  0.00     0.020 A 
ATOM      9  C   UNL d   1       4.623   0.969  -2.702  0.00  0.00     0.001 A 
ATOM     10  C   UNL d   1       4.197   2.269  -2.979  0.00  0.00     0.003 A 
ATOM     11  C   UNL d   1       3.183   2.844  -2.215  0.00  0.00     0.037 A 
ATOM     12  C   UNL d   1       2.596   2.111  -1.176  0.00  0.00     0.081 A 
BRANCH  12  13
ATOM     13  O   UNL d   1       1.629   2.703  -0.410  0.00  0.00    -0.360 OA
ATOM     14  H   UNL d   1       1.333   3.531  -0.817  0.00  0.00     0.217 HD
ENDBRANCH  12  13
ENDBRANCH   4   7
ENDBRANCH   1   3
BRANCH   2  15
ATOM     15  C   UNL d   1       2.183  -2.803   4.035  0.00  0.00     0.017 A 
ATOM     16  C   UNL d   1       2.573  -2.616   5.364  0.00  0.00     0.017 A 
ATOM     17  C   UNL d   1       1.862  -3.239   6.402  0.00  0.00     0.013 A 
ATOM     18  C   UNL d   1       0.769  -4.083   6.136  0.00  0.00    -0.023 A 
ATOM     19  C   UNL d   1       0.063  -4.703   7.189  0.00  0.00     0.012 A 
ATOM     20  C   UNL d   1       0.382  -4.317   4.793  0.00  0.00     0.008 A 
ATOM     21  C   UNL d   1      -1.010  -5.559   6.935  0.00  0.00     0.001 A 
ATOM     22  C   UNL d   1      -1.394  -5.806   5.627  0.00  0.00     0.001 A 
ATOM     23  C   UNL d   1      -0.709  -5.195   4.574  0.00  0.00     0.015 A 
ATOM     24  C   UNL d   1       1.112  -3.666   3.754  0.00  0.00     0.088 A 
BRANCH  24  25
ATOM     25  O   UNL d   1       0.840  -3.919   2.433  0.00  0.00    -0.359 OA
ATOM     26  H   UNL d   1      -0.018  -4.352   2.339  0.00  0.00     0.217 HD
ENDBRANCH  24  25
ENDBRANCH   2  15
TORSDOF 5
