REMARK  10 active torsions:
REMARK  status: ('A' for Active; 'I' for Inactive)
REMARK    1  A    between atoms: C_2  and  C_3 
REMARK    2  A    between atoms: C_3  and  C_4 
REMARK    3  A    between atoms: C_5  and  C_4 
REMARK    4  A    between atoms: C_5  and  C_10 
REMARK    5  A    between atoms: C_5  and  N_6 
REMARK       I    between atoms: N_6  and  C_7 
REMARK       I    between atoms: C_7  and  N_8 
REMARK       I    between atoms: C_10  and  N_12 
REMARK    6  A    between atoms: N_12  and  C_13 
REMARK    7  A    between atoms: C_13  and  C_14 
REMARK    8  A    between atoms: C_14  and  N_15 
REMARK    9  A    between atoms: N_15  and  C_16 
REMARK   10  A    between atoms: C_21  and  N_22 
ROOT
ATOM      1  C   UNL d   1       6.819   2.631  -1.098  0.00  0.00     0.240 C 
ATOM      2  O   UNL d   1       7.502   2.008  -0.301  0.00  0.00    -0.271 OA
ATOM      3  N   UNL d   1       7.431   3.497  -1.980  0.00  0.00    -0.358 N 
ATOM      4  H   UNL d   1       6.917   4.311  -2.287  0.00  0.00     0.162 HD
ENDROOT
BRANCH   3   5
ATOM      5  C   UNL d   1       8.866   3.647  -1.837  0.00  0.00     0.142 C 
BRANCH   5   6
ATOM      6  C   UNL d   1       9.349   4.926  -2.491  0.00  0.00     0.139 C 
BRANCH   6   7
ATOM      7  N   UNL d   1      10.788   5.057  -2.398  0.00  0.00    -0.386 N 
ATOM      8  H   UNL d   1      11.322   4.327  -1.931  0.00  0.00     0.159 HD
BRANCH   7   9
ATOM      9  C   UNL d   1      11.438   6.255  -2.641  0.00  0.00     0.061 A 
ATOM     10  C   UNL d   1      12.592   6.169  -3.450  0.00  0.00     0.031 A 
ATOM     11  C   UNL d   1      13.341   7.298  -3.795  0.00  0.00     0.002 A 
ATOM     12  C   UNL d   1      12.922   8.557  -3.387  0.00  0.00     0.003 A 
ATOM     13  C   UNL d   1      11.794   8.678  -2.584  0.00  0.00     0.038 A 
ATOM     14  C   UNL d   1      11.071   7.538  -2.188  0.00  0.00     0.129 A 
BRANCH  14  15
ATOM     15  N   UNL d   1       9.995   7.782  -1.216  0.00  0.00    -0.113 N 
ATOM     16  O   UNL d   1       9.416   8.878  -1.276  0.00  0.00    -0.532 OA
ATOM     17  O   UNL d   1       9.740   6.915  -0.369  0.00  0.00    -0.532 OA
ENDBRANCH  14  15
ENDBRANCH   7   9
ENDBRANCH   6   7
ENDBRANCH   5   6
ENDBRANCH   3   5
BRANCH   1  18
ATOM     18  C   UNL d   1       5.272   2.529  -1.140  0.00  0.00     0.177 C 
BRANCH  18  19
ATOM     19  N   UNL d   1       4.798   1.237  -0.599  0.00  0.00    -0.335 N 
ATOM     20  C   UNL d   1       5.362   0.012  -0.516  0.00  0.00     0.292 C 
ATOM     21  N   UNL d   1       6.587  -0.206  -1.025  0.00  0.00    -0.254 NA
ATOM     22  O   UNL d   1       4.755  -0.908   0.036  0.00  0.00    -0.254 OA
ATOM     23  H   UNL d   1       7.234   0.572  -1.039  0.00  0.00     0.128 HD
ATOM     24  H   UNL d   1       7.051  -0.992  -0.587  0.00  0.00     0.128 HD
ATOM     25  H   UNL d   1       3.823   1.189  -0.333  0.00  0.00     0.164 HD
ENDBRANCH  18  19
BRANCH  18  26
ATOM     26  C   UNL d   1       4.655   3.693  -0.298  0.00  0.00     0.035 C 
BRANCH  26  27
ATOM     27  C   UNL d   1       5.532   4.942  -0.322  0.00  0.00     0.002 C 
BRANCH  27  28
ATOM     28  C   UNL d   1       5.143   6.099   0.563  0.00  0.00    -0.004 C 
ATOM     29  C   UNL d   1       6.226   7.167   0.413  0.00  0.00     0.005 C 
ENDBRANCH  27  28
ENDBRANCH  26  27
ENDBRANCH  18  26
ENDBRANCH   1  18
TORSDOF 10
