REMARK  3 active torsions:
REMARK  status: ('A' for Active; 'I' for Inactive)
REMARK       I    between atoms: N_1  and  C_2 
REMARK    1  A    between atoms: C_2  and  C_4 
REMARK       I    between atoms: N_7  and  C_8 
REMARK    2  A    between atoms: C_8  and  C_10 
REMARK    3  A    between atoms: C_13  and  N_14 
ROOT
ATOM      1  C   UNL d   1       6.146   0.834  -3.797  0.00  0.00     0.032 A 
ATOM      2  C   UNL d   1       7.527   0.985  -3.674  0.00  0.00     0.019 A 
ATOM      3  C   UNL d   1       8.376   0.014  -4.219  0.00  0.00     0.032 A 
ATOM      4  C   UNL d   1       7.850  -1.129  -4.831  0.00  0.00     0.059 A 
ATOM      5  C   UNL d   1       6.469  -1.202  -4.985  0.00  0.00     0.032 A 
ATOM      6  C   UNL d   1       5.615  -0.256  -4.464  0.00  0.00     0.019 A 
ENDROOT
BRANCH   1   7
ATOM      7  C   UNL d   1       5.206   1.869  -3.336  0.00  0.00     0.253 C 
ATOM      8  N   UNL d   1       4.207   1.479  -2.453  0.00  0.00    -0.348 N 
ATOM      9  C   UNL d   1       3.210   2.436  -1.979  0.00  0.00     0.127 C 
ATOM     10  C   UNL d   1       4.178   0.188  -1.780  0.00  0.00     0.127 C 
ATOM     11  C   UNL d   1       3.254   2.535  -0.452  0.00  0.00     0.034 C 
ATOM     12  C   UNL d   1       3.243   1.156   0.270  0.00  0.00     0.081 C 
ATOM     13  C   UNL d   1       4.468   0.406  -0.285  0.00  0.00     0.034 C 
ATOM     14  O   UNL d   1       5.329   2.995  -3.800  0.00  0.00    -0.267 OA
BRANCH  12  15
ATOM     15  C   UNL d   1       2.158   0.053   0.126  0.00  0.00     0.219 C 
ATOM     16  N   UNL d   1       0.845   0.294   0.104  0.00  0.00    -0.370 N 
ATOM     17  H   UNL d   1       0.308  -0.565   0.000  0.00  0.00     0.159 HD
ATOM     18  H   UNL d   1       0.376   1.162   0.283  0.00  0.00     0.159 HD
ATOM     19  O   UNL d   1       2.444  -1.149   0.043  0.00  0.00    -0.273 OA
ENDBRANCH  12  15
ENDBRANCH   1   7
BRANCH   4  20
ATOM     20  N   UNL d   1       8.743  -2.114  -5.250  0.00  0.00    -0.225 NA
ATOM     21  C   UNL d   1       8.398  -3.254  -5.713  0.00  0.00     0.163 C 
ATOM     22  N   UNL d   1       7.211  -3.912  -5.974  0.00  0.00    -0.362 N 
ATOM     23  S   UNL d   1       9.749  -4.331  -6.189  0.00  0.00    -0.084 SA
ATOM     24  C   UNL d   1       7.345  -4.914  -6.986  0.00  0.00     0.112 C 
ATOM     25  H   UNL d   1       6.295  -3.583  -5.744  0.00  0.00     0.162 HD
ATOM     26  C   UNL d   1       6.246  -5.928  -7.179  0.00  0.00     0.166 C 
ATOM     27  C   UNL d   1       8.573  -5.668  -6.489  0.00  0.00     0.093 C 
ATOM     28  S   UNL d   1       7.189  -7.342  -7.802  0.00  0.00     0.147 S 
ATOM     29  O   UNL d   1       6.957  -7.481  -9.215  0.00  0.00    -0.228 OA
ATOM     30  O   UNL d   1       7.004  -8.441  -6.866  0.00  0.00    -0.228 OA
ATOM     31  C   UNL d   1       8.845  -6.673  -7.554  0.00  0.00     0.158 C 
ENDBRANCH   4  20
TORSDOF 3
