REMARK  3 active torsions:
REMARK  status: ('A' for Active; 'I' for Inactive)
REMARK       I    between atoms: C_2  and  N_3 
REMARK    1  A    between atoms: C_2  and  C_11 
REMARK    2  A    between atoms: N_3  and  N_4 
REMARK    3  A    between atoms: N_4  and  C_5 
ROOT
ATOM      1  O   UNL d   1       0.936  -0.007  -0.100  0.00  0.00    -0.266 OA
ATOM      2  C   UNL d   1       2.171   0.007  -0.090  0.00  0.00     0.272 C 
ATOM      3  N   UNL d   1       2.929  -0.012  -1.259  0.00  0.00    -0.265 N 
ATOM      4  H   UNL d   1       3.935   0.112  -1.242  0.00  0.00     0.190 HD
ENDROOT
BRANCH   3   5
ATOM      5  N   UNL d   1       2.277   0.344  -2.456  0.00  0.00    -0.298 N 
ATOM      6  H   UNL d   1       1.282   0.088  -2.471  0.00  0.00     0.187 HD
BRANCH   5   7
ATOM      7  C   UNL d   1       2.940   0.120  -3.684  0.00  0.00     0.048 A 
ATOM      8  C   UNL d   1       2.501   0.862  -4.795  0.00  0.00     0.031 A 
ATOM      9  C   UNL d   1       3.099   0.727  -6.054  0.00  0.00     0.002 A 
ATOM     10  C   UNL d   1       4.182  -0.128  -6.218  0.00  0.00     0.000 A 
ATOM     11  C   UNL d   1       4.628  -0.882  -5.134  0.00  0.00     0.002 A 
ATOM     12  C   UNL d   1       4.005  -0.767  -3.878  0.00  0.00     0.031 A 
ENDBRANCH   5   7
ENDBRANCH   3   5
BRANCH   2  13
ATOM     13  C   UNL d   1       2.915  -0.012   1.161  0.00  0.00     0.057 A 
ATOM     14  C   UNL d   1       2.626  -0.779   2.333  0.00  0.00     0.043 A 
ATOM     15  C   UNL d   1       3.570  -0.445   3.275  0.00  0.00     0.142 A 
ATOM     16  O   UNL d   1       4.407   0.502   2.781  0.00  0.00    -0.334 OA
ATOM     17  C   UNL d   1       4.002   0.768   1.509  0.00  0.00     0.158 A 
ENDBRANCH   2  13
TORSDOF 3
