REMARK  6 active torsions:
REMARK  status: ('A' for Active; 'I' for Inactive)
REMARK    1  A    between atoms: C_7  and  N_8 
REMARK       I    between atoms: N_8  and  C_9 
REMARK    2  A    between atoms: C_9  and  C_11 
REMARK    3  A    between atoms: C_15  and  S_16 
REMARK    4  A    between atoms: S_16  and  N_19 
REMARK    5  A    between atoms: N_19  and  C_20 
REMARK    6  A    between atoms: C_20  and  C_21 
ROOT
ATOM      1  N   UNL d   1      -3.095   0.028   0.036  0.00  0.00    -0.191 NA
ATOM      2  C   UNL d   1      -1.917   0.057  -0.020  0.00  0.00     0.099 C 
ATOM      3  C   UNL d   1      -0.496   0.056  -0.050  0.00  0.00     0.046 A 
ATOM      4  C   UNL d   1       0.242   1.233  -0.040  0.00  0.00     0.023 A 
ATOM      5  C   UNL d   1       1.637   1.168   0.015  0.00  0.00     0.004 A 
ATOM      6  C   UNL d   1       2.300  -0.076   0.060  0.00  0.00     0.029 A 
ATOM      7  C   UNL d   1       1.564  -1.269   0.015  0.00  0.00     0.036 A 
ATOM      8  C   UNL d   1       0.171  -1.169  -0.048  0.00  0.00     0.052 A 
ENDROOT
BRANCH   7   9
ATOM      9  N   UNL d   1       2.216  -2.537   0.043  0.00  0.00    -0.323 N 
ATOM     10  C   UNL d   1       1.549  -3.759  -0.044  0.00  0.00     0.256 C 
ATOM     11  O   UNL d   1       0.338  -3.935  -0.139  0.00  0.00    -0.267 OA
ATOM     12  H   UNL d   1       3.229  -2.534   0.087  0.00  0.00     0.169 HD
BRANCH  10  13
ATOM     13  C   UNL d   1       2.337  -5.008   0.007  0.00  0.00     0.033 A 
ATOM     14  C   UNL d   1       1.908  -6.087  -0.789  0.00  0.00     0.017 A 
ATOM     15  C   UNL d   1       2.441  -7.359  -0.595  0.00  0.00     0.003 A 
ATOM     16  C   UNL d   1       3.460  -7.540   0.336  0.00  0.00     0.025 A 
ATOM     17  C   UNL d   1       3.884  -6.462   1.131  0.00  0.00     0.075 A 
ATOM     18  C   UNL d   1       3.324  -5.192   0.976  0.00  0.00     0.041 A 
BRANCH  17  19
ATOM     19  S   UNL d   1       5.088  -6.808   2.383  0.00  0.00     0.241 S 
ATOM     20  O   UNL d   1       4.484  -7.725   3.323  0.00  0.00    -0.206 OA
ATOM     21  O   UNL d   1       6.335  -7.093   1.711  0.00  0.00    -0.206 OA
BRANCH  19  22
ATOM     22  N   UNL d   1       5.299  -5.374   3.238  0.00  0.00    -0.211 NA
ATOM     23  H   UNL d   1       4.424  -5.039   3.647  0.00  0.00     0.140 HD
BRANCH  22  24
ATOM     24  C   UNL d   1       6.339  -5.511   4.312  0.00  0.00     0.143 C 
BRANCH  24  25
ATOM     25  C   UNL d   1       6.492  -4.184   4.992  0.00  0.00    -0.042 C 
ATOM     26  C   UNL d   1       6.345  -3.914   6.346  0.00  0.00     0.008 C 
ATOM     27  C   UNL d   1       6.435  -2.559   6.767  0.00  0.00     0.022 C 
ATOM     28  C   UNL d   1       6.472  -1.534   5.778  0.00  0.00     0.170 C 
ATOM     29  C   UNL d   1       6.068  -1.889   4.532  0.00  0.00     0.092 C 
ATOM     30  O   UNL d   1       7.662  -0.732   5.378  0.00  0.00    -0.341 OA
ATOM     31  C   UNL d   1       6.553  -3.112   4.127  0.00  0.00     0.044 C 
ATOM     32  O   UNL d   1       6.079  -0.834   3.655  0.00  0.00    -0.327 OA
ATOM     33  C   UNL d   1       7.436  -0.530   3.909  0.00  0.00     0.346 C 
ENDBRANCH  24  25
ENDBRANCH  22  24
ENDBRANCH  19  22
ENDBRANCH  17  19
ENDBRANCH  10  13
ENDBRANCH   7   9
TORSDOF 6
