@<TRIPOS>MOLECULE
*****
 53 55 0 0 0
SMALL
GASTEIGER

@<TRIPOS>ATOM
      1 C           1.0570   -0.1477   -0.2200 C.3     1  UNL1       -0.0191
      2 C           2.5543    0.0766   -0.0472 C.3     1  UNL1        0.1730
      3 O           2.8469    1.2825    0.6966 O.3     1  UNL1       -0.4784
      4 C           2.5418    2.4847    0.0924 C.ar    1  UNL1        0.1398
      5 C           3.6214    3.3599   -0.1114 C.ar    1  UNL1       -0.0184
      6 C           3.4276    4.6221   -0.6972 C.ar    1  UNL1       -0.0582
      7 C           2.1674    5.0014   -1.1464 C.ar    1  UNL1       -0.0602
      8 C           1.0863    4.1687   -0.9109 C.ar    1  UNL1       -0.0398
      9 C           1.2539    2.9821   -0.1914 C.ar    1  UNL1        0.0826
     10 CL         -0.2325    2.4224    0.5072 Cl      1  UNL1       -0.0798
     11 C           3.0458   -1.1743    0.7250 C.2     1  UNL1        0.2577
     12 O           2.2368   -2.0007    1.1582 O.2     1  UNL1       -0.2714
     13 N           4.4210   -1.3092    0.8894 N.am    1  UNL1       -0.2825
     14 C           4.9985   -2.4790    1.4343 C.ar    1  UNL1        0.0336
     15 C           6.1947   -2.4917    2.1602 C.ar    1  UNL1       -0.0387
     16 C           6.7889   -3.7232    2.6041 C.ar    1  UNL1       -0.0388
     17 C           6.1772   -4.9599    2.3346 C.ar    1  UNL1        0.0327
     18 N           6.6761   -6.2466    2.8267 N.am    1  UNL1       -0.2966
     19 C           6.0337   -7.5209    2.6904 C.2     1  UNL1        0.1411
     20 S           4.5518   -7.8118    1.9260 S.2     1  UNL1       -0.0182
     21 N           6.7233   -8.6186    3.2619 N.am    1  UNL1       -0.2636
     22 C           6.2627   -9.9522    3.1255 C.2     1  UNL1        0.2497
     23 O           5.2660  -10.3336    2.5248 O.2     1  UNL1       -0.2698
     24 C           6.9366  -11.0991    3.7387 C.ar    1  UNL1        0.0435
     25 C           6.8363  -12.3182    3.0247 C.ar    1  UNL1       -0.0492
     26 C           7.0922  -13.5363    3.6416 C.ar    1  UNL1       -0.0546
     27 C           7.5190  -13.5424    4.9634 C.ar    1  UNL1        0.0156
     28 C           7.6182  -12.3297    5.6701 C.ar    1  UNL1        0.2739
     29 N           7.9786  -12.3492    7.0894 N.pl3   1  UNL1        0.0796
     30 O           8.2441  -13.4512    7.6008 O.2     1  UNL1        0.0414
     31 O           8.0058  -11.2702    7.6875 O.co2   1  UNL1       -0.5760
     32 C           7.3175  -11.0956    5.0699 C.ar    1  UNL1        0.0277
     33 C           5.0297   -4.8615    1.5575 C.ar    1  UNL1       -0.0388
     34 C           4.4166   -3.6888    1.1607 C.ar    1  UNL1       -0.0387
     35 H           0.6656    0.5415   -0.9662 H       1  UNL1        0.0270
     36 H           0.5690   -0.0087    0.7537 H       1  UNL1        0.0270
     37 H           0.7784   -1.1426   -0.5743 H       1  UNL1        0.0270
     38 H           3.0451    0.0855   -1.0302 H       1  UNL1        0.0829
     39 H           4.6217    3.0927    0.2227 H       1  UNL1        0.0654
     40 H           4.2577    5.3172   -0.8025 H       1  UNL1        0.0619
     41 H           2.0020    5.9661   -1.6179 H       1  UNL1        0.0618
     42 H           0.0887    4.4799   -1.2125 H       1  UNL1        0.0633
     43 H           5.0288   -0.5402    0.6498 H       1  UNL1        0.1549
     44 H           6.6420   -1.5437    2.4494 H       1  UNL1        0.0637
     45 H           7.7321   -3.6566    3.1415 H       1  UNL1        0.0637
     46 H           7.5161   -6.1738    3.3913 H       1  UNL1        0.1538
     47 H           7.5719   -8.4576    3.7812 H       1  UNL1        0.1568
     48 H           6.4625  -12.3180    1.9971 H       1  UNL1        0.0625
     49 H           6.9119  -14.4658    3.1048 H       1  UNL1        0.0620
     50 H           7.7420  -14.4979    5.4345 H       1  UNL1        0.0685
     51 H           7.2883  -10.1771    5.6468 H       1  UNL1        0.0693
     52 H           4.5007   -5.6856    1.1355 H       1  UNL1        0.0637
     53 H           3.5033   -3.8017    0.5822 H       1  UNL1        0.0637
@<TRIPOS>UNITY_ATOM_ATTR
29 1
charge 1
31 1
charge -1
@<TRIPOS>BOND
     1     1     2    1
     2     2     3    1
     3     3     4    1
     4     4     5   ar
     5     5     6   ar
     6     6     7   ar
     7     7     8   ar
     8     8     9   ar
     9     4     9   ar
    10     9    10    1
    11     2    11    1
    12    11    12    2
    13    11    13   am
    14    13    14    1
    15    14    15   ar
    16    15    16   ar
    17    16    17   ar
    18    17    18    1
    19    18    19    1
    20    19    20    2
    21    19    21    1
    22    21    22   am
    23    22    23    2
    24    22    24    1
    25    24    25   ar
    26    25    26   ar
    27    26    27   ar
    28    27    28   ar
    29    28    29    1
    30    29    30    2
    31    29    31    1
    32    28    32   ar
    33    24    32   ar
    34    17    33   ar
    35    33    34   ar
    36    14    34   ar
    37     1    35    1
    38     1    36    1
    39     1    37    1
    40     2    38    1
    41     5    39    1
    42     6    40    1
    43     7    41    1
    44     8    42    1
    45    13    43    1
    46    15    44    1
    47    16    45    1
    48    18    46    1
    49    21    47    1
    50    25    48    1
    51    26    49    1
    52    27    50    1
    53    32    51    1
    54    33    52    1
    55    34    53    1
