@<TRIPOS>MOLECULE
*****
 66 69 0 0 0
SMALL
GASTEIGER

@<TRIPOS>ATOM
      1 C           1.0471    0.1371    0.0193 C.3     1  UNL1        0.0788
      2 O           2.4678    0.2356   -0.0061 O.3     1  UNL1       -0.4950
      3 C           3.0911    0.2928    1.2094 C.ar    1  UNL1        0.1236
      4 C           4.2526    1.0460    1.2647 C.ar    1  UNL1       -0.0190
      5 C           5.0109    1.0535    2.4378 C.ar    1  UNL1       -0.0426
      6 C           4.5930    0.3658    3.6072 C.ar    1  UNL1        0.0788
      7 C           5.4311    0.5860    4.8334 C.2     1  UNL1        0.2531
      8 O           6.3799    1.3328    4.6575 O.2     1  UNL1       -0.2697
      9 N           5.0954    0.0180    6.0945 N.am    1  UNL1       -0.2635
     10 C           5.8637    0.1624    7.2804 C.2     1  UNL1        0.1411
     11 S           7.3566    0.9657    7.3136 S.2     1  UNL1       -0.0182
     12 N           5.3126   -0.4562    8.4355 N.am    1  UNL1       -0.2966
     13 C           5.8793   -0.3254    9.7636 C.ar    1  UNL1        0.0327
     14 C           6.0624   -1.4118   10.6205 C.ar    1  UNL1       -0.0388
     15 C           6.6447   -1.2236   11.9073 C.ar    1  UNL1       -0.0389
     16 C           7.0767    0.0310   12.3832 C.ar    1  UNL1        0.0301
     17 N           7.6489    0.1497   13.6404 N.pl3   1  UNL1       -0.3198
     18 C           7.3230    1.2109   14.5982 C.3     1  UNL1        0.0525
     19 C           8.4177    2.3084   14.6736 C.3     1  UNL1       -0.0154
     20 N           9.8148    1.7037   14.9462 N.4     1  UNL1        0.2407
     21 C          10.9402    2.7650   14.8540 C.3     1  UNL1       -0.0044
     22 C          12.3604    2.3157   15.1694 C.ar    1  UNL1        0.0153
     23 C          13.0601    2.8973   16.2515 C.ar    1  UNL1       -0.0521
     24 C          14.4038    2.5707   16.5008 C.ar    1  UNL1       -0.0612
     25 C          15.0191    1.5406   15.7998 C.ar    1  UNL1       -0.0604
     26 C          14.3462    0.9375   14.7542 C.ar    1  UNL1       -0.0429
     27 C          13.0984    1.4203   14.3648 C.ar    1  UNL1        0.0492
     28 CL         12.6853    0.9930   12.7394 Cl      1  UNL1       -0.0831
     29 C          10.0487    0.5193   14.0081 C.3     1  UNL1       -0.0154
     30 C           8.9173   -0.5156   13.9231 C.3     1  UNL1        0.0525
     31 C           6.8660    1.1049   11.5223 C.ar    1  UNL1       -0.0389
     32 C           6.2614    0.9283   10.2587 C.ar    1  UNL1       -0.0388
     33 C           3.4375   -0.4107    3.5388 C.ar    1  UNL1        0.1357
     34 O           3.0971   -1.1308    4.6564 O.3     1  UNL1       -0.4942
     35 C           1.9523   -1.9685    4.5264 C.3     1  UNL1        0.0788
     36 C           2.6988   -0.4362    2.3356 C.ar    1  UNL1        0.0225
     37 H           0.7022   -0.0103   -1.0089 H       1  UNL1        0.0660
     38 H           0.6176    1.0696    0.3964 H       1  UNL1        0.0660
     39 H           0.6806   -0.7174    0.5948 H       1  UNL1        0.0660
     40 H           4.5711    1.6344    0.4061 H       1  UNL1        0.0654
     41 H           5.9478    1.6131    2.4295 H       1  UNL1        0.0627
     42 H           4.2544   -0.5454    6.1042 H       1  UNL1        0.1568
     43 H           4.6421   -1.2074    8.3145 H       1  UNL1        0.1538
     44 H           5.8276   -2.4272   10.3087 H       1  UNL1        0.0637
     45 H           6.7265   -2.0852   12.5693 H       1  UNL1        0.0637
     46 H           7.2761    0.7295   15.5855 H       1  UNL1        0.0516
     47 H           6.3314    1.6314   14.4117 H       1  UNL1        0.0516
     48 H           8.2042    2.9987   15.4978 H       1  UNL1        0.0830
     49 H           8.4856    2.8639   13.7336 H       1  UNL1        0.0830
     50 H           9.8281    1.3498   15.9098 H       1  UNL1        0.2038
     51 H          10.6425    3.5484   15.5679 H       1  UNL1        0.0868
     52 H          10.8995    3.2148   13.8563 H       1  UNL1        0.0868
     53 H          12.6124    3.6638   16.8860 H       1  UNL1        0.0623
     54 H          14.9888    3.1289   17.2314 H       1  UNL1        0.0618
     55 H          16.0447    1.2474   16.0104 H       1  UNL1        0.0618
     56 H          14.8370    0.1607   14.1715 H       1  UNL1        0.0632
     57 H          10.9195   -0.0070   14.3991 H       1  UNL1        0.0830
     58 H          10.1820    0.9585   13.0178 H       1  UNL1        0.0830
     59 H           8.8456   -1.0309   14.8872 H       1  UNL1        0.0516
     60 H           9.1872   -1.2680   13.1720 H       1  UNL1        0.0516
     61 H           7.1797    2.1120   11.7741 H       1  UNL1        0.0637
     62 H           6.0977    1.8149    9.6505 H       1  UNL1        0.0637
     63 H           1.8278   -2.5079    5.4670 H       1  UNL1        0.0660
     64 H           2.0890   -2.7093    3.7299 H       1  UNL1        0.0660
     65 H           1.0553   -1.3629    4.3597 H       1  UNL1        0.0660
     66 H           1.8155   -1.0531    2.2548 H       1  UNL1        0.0691
@<TRIPOS>UNITY_ATOM_ATTR
20 1
charge 1
@<TRIPOS>BOND
     1     1     2    1
     2     2     3    1
     3     3     4   ar
     4     4     5   ar
     5     5     6   ar
     6     6     7    1
     7     7     8    2
     8     7     9   am
     9     9    10    1
    10    10    11    2
    11    10    12    1
    12    12    13    1
    13    13    14   ar
    14    14    15   ar
    15    15    16   ar
    16    16    17    1
    17    17    18    1
    18    18    19    1
    19    19    20    1
    20    20    21    1
    21    21    22    1
    22    22    23   ar
    23    23    24   ar
    24    24    25   ar
    25    25    26   ar
    26    26    27   ar
    27    22    27   ar
    28    27    28    1
    29    20    29    1
    30    29    30    1
    31    17    30    1
    32    16    31   ar
    33    31    32   ar
    34    13    32   ar
    35     6    33   ar
    36    33    34    1
    37    34    35    1
    38    33    36   ar
    39     3    36   ar
    40     1    37    1
    41     1    38    1
    42     1    39    1
    43     4    40    1
    44     5    41    1
    45     9    42    1
    46    12    43    1
    47    14    44    1
    48    15    45    1
    49    18    46    1
    50    18    47    1
    51    19    48    1
    52    19    49    1
    53    20    50    1
    54    21    51    1
    55    21    52    1
    56    23    53    1
    57    24    54    1
    58    25    55    1
    59    26    56    1
    60    29    57    1
    61    29    58    1
    62    30    59    1
    63    30    60    1
    64    31    61    1
    65    32    62    1
    66    35    63    1
    67    35    64    1
    68    35    65    1
    69    36    66    1
