REMARK  6 active torsions:
REMARK  status: ('A' for Active; 'I' for Inactive)
REMARK    1  A    between atoms: C_2  and  C_3 
REMARK       I    between atoms: C_2  and  N_14 
REMARK    2  A    between atoms: C_3  and  C_4 
REMARK    3  A    between atoms: C_4  and  C_5 
REMARK    4  A    between atoms: C_5  and  C_6 
REMARK       I    between atoms: C_6  and  N_8 
REMARK    5  A    between atoms: N_8  and  C_9 
REMARK    6  A    between atoms: N_14  and  C_15 
ROOT
ATOM      1  C   UNL d   1       1.998  -1.996   1.642  0.00  0.00     0.019 C 
ENDROOT
BRANCH   1   2
ATOM      2  C   UNL d   1       2.957  -1.108   0.867  0.00  0.00     0.103 C 
BRANCH   2   3
ATOM      3  C   UNL d   1       2.267  -0.085  -0.037  0.00  0.00     0.223 C 
ATOM      4  O   UNL d   1       1.036   0.007  -0.106  0.00  0.00    -0.273 OA
ATOM      5  N   UNL d   1       3.048   0.809  -0.722  0.00  0.00    -0.310 N 
ATOM      6  H   UNL d   1       2.581   1.626  -1.093  0.00  0.00     0.170 HD
BRANCH   5   7
ATOM      7  C   UNL d   1       4.419   0.800  -0.802  0.00  0.00     0.151 C 
ATOM      8  C   UNL d   1       5.260  -0.325  -0.933  0.00  0.00     0.071 C 
ATOM      9  C   UNL d   1       6.540   0.160  -0.886  0.00  0.00     0.113 C 
ATOM     10  N   UNL d   1       6.410   1.511  -0.793  0.00  0.00    -0.287 N 
ATOM     11  N   UNL d   1       5.129   1.930  -0.824  0.00  0.00    -0.157 NA
ATOM     12  H   UNL d   1       7.150   2.203  -0.729  0.00  0.00     0.188 HD
ENDBRANCH   5   7
ENDBRANCH   2   3
ENDBRANCH   1   2
BRANCH   1  13
ATOM     13  C   UNL d   1       2.722  -3.047   2.512  0.00  0.00     0.103 C 
BRANCH  13  14
ATOM     14  C   UNL d   1       1.691  -3.924   3.207  0.00  0.00     0.223 C 
ATOM     15  O   UNL d   1       0.486  -3.739   3.009  0.00  0.00    -0.273 OA
ATOM     16  N   UNL d   1       2.184  -4.896   4.055  0.00  0.00    -0.310 N 
ATOM     17  H   UNL d   1       3.120  -4.862   4.433  0.00  0.00     0.170 HD
BRANCH  16  18
ATOM     18  C   UNL d   1       1.315  -5.777   4.676  0.00  0.00     0.151 C 
ATOM     19  C   UNL d   1       0.133  -6.311   4.110  0.00  0.00     0.071 C 
ATOM     20  C   UNL d   1      -0.413  -7.118   5.072  0.00  0.00     0.113 C 
ATOM     21  N   UNL d   1       0.415  -7.006   6.147  0.00  0.00    -0.287 N 
ATOM     22  N   UNL d   1       1.530  -6.279   5.897  0.00  0.00    -0.157 NA
ATOM     23  H   UNL d   1       0.292  -7.425   7.064  0.00  0.00     0.188 HD
ENDBRANCH  16  18
ENDBRANCH  13  14
ENDBRANCH   1  13
TORSDOF 6
