@<TRIPOS>MOLECULE
*****
 42 45 0 0 0
SMALL
GASTEIGER

@<TRIPOS>ATOM
      1 O           1.0779   -0.0692    0.0856 O.2     1  UNL1       -0.2692
      2 C           2.3059   -0.0162    0.0653 C.2     1  UNL1        0.2579
      3 N           3.0164    0.5360   -1.0058 N.am    1  UNL1       -0.2810
      4 C           2.3469    1.1237   -2.1121 C.ar    1  UNL1        0.0338
      5 C           2.7633    0.9013   -3.4291 C.ar    1  UNL1       -0.0387
      6 C           2.0902    1.5254   -4.5090 C.ar    1  UNL1       -0.0376
      7 C           0.9799    2.3537   -4.2827 C.ar    1  UNL1        0.0482
      8 N           0.3168    2.9953   -5.3858 N.pl3   1  UNL1       -0.2163
      9 S          -1.0741    3.9534   -5.1266 S.O2    1  UNL1        0.0725
     10 O          -2.0739    3.0829   -4.4814 O.2     1  UNL1       -0.1500
     11 O          -0.6999    5.1949   -4.5507 O.2     1  UNL1       -0.1500
     12 C          -1.6647    4.2021   -6.7825 C.ar    1  UNL1        0.1122
     13 C          -1.9538    5.3783   -7.4951 C.ar    1  UNL1       -0.0314
     14 C          -2.7520    5.3085   -8.7522 C.ar    1  UNL1       -0.0144
     15 C          -3.2692    4.0567   -9.2057 C.ar    1  UNL1        0.1622
     16 C          -3.0374    3.0935   -8.2834 C.ar    1  UNL1        0.1639
     17 C          -2.1492    3.0392   -7.2662 C.ar    1  UNL1        0.0103
     18 O          -4.1006    2.2975   -7.9687 O.3     1  UNL1       -0.4849
     19 C          -3.9251    1.2685   -8.8821 C.3     1  UNL1        0.1237
     20 C          -4.4160    1.9447  -10.1581 C.3     1  UNL1        0.1237
     21 O          -4.0534    3.5313  -10.2546 O.3     1  UNL1       -0.4849
     22 C           0.6059    2.5887   -2.9629 C.ar    1  UNL1       -0.0376
     23 C           1.2667    1.9752   -1.8974 C.ar    1  UNL1       -0.0387
     24 C           3.0573   -0.6594    1.1109 C.ar    1  UNL1        0.1140
     25 C           2.7747   -1.8668    1.7250 C.ar    1  UNL1        0.0708
     26 N           3.5634   -2.1826    2.8168 N.ar    1  UNL1       -0.1488
     27 N           4.4344   -1.2195    3.0728 N.ar    1  UNL1       -0.1098
     28 S           4.3255    0.0630    1.9908 S.2     1  UNL1        0.0412
     29 H           3.9989    0.3154   -1.1061 H       1  UNL1        0.1551
     30 H           3.5624    0.1954   -3.6456 H       1  UNL1        0.0637
     31 H           2.4551    1.3514   -5.5196 H       1  UNL1        0.0637
     32 H           0.4572    2.6239   -6.3238 H       1  UNL1        0.1737
     33 H          -1.6124    6.3273   -7.0673 H       1  UNL1        0.0638
     34 H          -2.9815    6.2917   -9.1873 H       1  UNL1        0.0656
     35 H          -2.1841    2.1189   -6.6951 H       1  UNL1        0.0675
     36 H          -4.5032    0.4790   -8.3984 H       1  UNL1        0.0731
     37 H          -2.8872    0.8875   -8.9510 H       1  UNL1        0.0731
     38 H          -5.5128    1.8421  -10.1357 H       1  UNL1        0.0731
     39 H          -4.0620    1.3810  -11.0390 H       1  UNL1        0.0731
     40 H          -0.2128    3.2530   -2.7085 H       1  UNL1        0.0637
     41 H           0.9262    2.2071   -0.8920 H       1  UNL1        0.0637
     42 H           1.9899   -2.5477    1.4208 H       1  UNL1        0.0862
@<TRIPOS>BOND
     1     1     2    2
     2     2     3   am
     3     3     4    1
     4     4     5   ar
     5     5     6   ar
     6     6     7   ar
     7     7     8    1
     8     8     9    1
     9     9    10    2
    10     9    11    2
    11     9    12    1
    12    12    13   ar
    13    13    14   ar
    14    14    15   ar
    15    15    16   ar
    16    16    17   ar
    17    12    17   ar
    18    16    18    1
    19    18    19    1
    20    19    20    1
    21    20    21    1
    22    15    21    1
    23     7    22   ar
    24    22    23   ar
    25     4    23   ar
    26     2    24    1
    27    24    25   ar
    28    25    26   ar
    29    26    27   ar
    30    27    28   ar
    31    24    28   ar
    32     3    29    1
    33     5    30    1
    34     6    31    1
    35     8    32    1
    36    13    33    1
    37    14    34    1
    38    17    35    1
    39    19    36    1
    40    19    37    1
    41    20    38    1
    42    20    39    1
    43    22    40    1
    44    23    41    1
    45    25    42    1
