@<TRIPOS>MOLECULE
*****
 48 50 0 0 0
SMALL
GASTEIGER

@<TRIPOS>ATOM
      1 C           0.5702    2.2425    0.0101 C.3     1  UNL1       -0.0383
      2 C          -0.2597    0.9897    0.0027 C.ar    1  UNL1       -0.0320
      3 C          -1.6438    1.1148   -0.0109 C.ar    1  UNL1       -0.0557
      4 C          -2.4618   -0.0134   -0.0123 C.ar    1  UNL1       -0.0401
      5 C          -1.9544   -1.3142    0.0038 C.ar    1  UNL1        0.0348
      6 N          -2.8195   -2.4571    0.0069 N.am    1  UNL1       -0.2842
      7 C          -4.2189   -2.3908   -0.0055 C.2     1  UNL1        0.2343
      8 O          -4.8819   -1.3497   -0.0044 O.2     1  UNL1       -0.2738
      9 C          -4.9899   -3.7272   -0.0051 C.3     1  UNL1        0.0861
     10 N          -6.4262   -3.4453   -0.1646 N.pl3   1  UNL1       -0.3354
     11 C          -7.4458   -4.3557   -0.0008 C.ar    1  UNL1        0.0275
     12 C          -8.6166   -4.2294   -0.7592 C.ar    1  UNL1       -0.0401
     13 C          -9.6728   -5.1517   -0.6382 C.ar    1  UNL1       -0.0479
     14 C          -9.5620   -6.2640    0.2091 C.ar    1  UNL1        0.0368
     15 C         -10.6541   -7.3006    0.2042 C.2     1  UNL1        0.2444
     16 O         -11.6449   -7.1450   -0.5133 O.2     1  UNL1       -0.2702
     17 N         -10.4958   -8.4241    0.9911 N.am    1  UNL1       -0.3042
     18 C         -11.4816   -9.4969    1.0033 C.3     1  UNL1        0.0700
     19 C         -11.1103  -10.5223    2.0221 C.ar    1  UNL1        0.1218
     20 C         -10.5448  -10.4326    3.2792 C.ar    1  UNL1       -0.0192
     21 C         -10.5221  -11.7399    3.8153 C.ar    1  UNL1       -0.0236
     22 C         -11.0636  -12.5567    2.8513 C.ar    1  UNL1        0.0921
     23 O         -11.4186  -11.8297    1.7557 O.2     1  UNL1       -0.4662
     24 C          -8.4048   -6.3764    0.9862 C.ar    1  UNL1       -0.0479
     25 C          -7.3638   -5.4395    0.8705 C.ar    1  UNL1       -0.0401
     26 C          -0.5576   -1.4525    0.0139 C.ar    1  UNL1       -0.0219
     27 C           0.2770   -0.3073    0.0096 C.ar    1  UNL1        0.0456
     28 CL          1.9929   -0.5370    0.0083 Cl      1  UNL1       -0.0832
     29 H          -0.0634    3.1390    0.0075 H       1  UNL1        0.0278
     30 H           1.2022    2.2943   -0.8810 H       1  UNL1        0.0278
     31 H           1.1879    2.2910    0.9117 H       1  UNL1        0.0278
     32 H          -2.1247    2.0904   -0.0216 H       1  UNL1        0.0621
     33 H          -3.5219    0.1972   -0.0273 H       1  UNL1        0.0636
     34 H          -2.3743   -3.3686    0.0151 H       1  UNL1        0.1549
     35 H          -4.7733   -4.2491    0.9305 H       1  UNL1        0.0557
     36 H          -4.6693   -4.3254   -0.8621 H       1  UNL1        0.0557
     37 H          -6.6706   -2.4517   -0.1045 H       1  UNL1        0.1466
     38 H          -8.6981   -3.4314   -1.4969 H       1  UNL1        0.0636
     39 H         -10.5759   -4.9986   -1.2281 H       1  UNL1        0.0626
     40 H          -9.6552   -8.5672    1.5250 H       1  UNL1        0.1495
     41 H         -11.5550   -9.9235   -0.0030 H       1  UNL1        0.0543
     42 H         -12.4527   -9.0640    1.2659 H       1  UNL1        0.0543
     43 H         -10.2206   -9.5196    3.7557 H       1  UNL1        0.0652
     44 H         -10.1714  -12.0451    4.7913 H       1  UNL1        0.0649
     45 H         -11.2649  -13.6193    2.8051 H       1  UNL1        0.1029
     46 H          -8.2674   -7.1784    1.6994 H       1  UNL1        0.0626
     47 H          -6.4909   -5.5635    1.5027 H       1  UNL1        0.0636
     48 H          -0.0856   -2.4322    0.0236 H       1  UNL1        0.0651
@<TRIPOS>BOND
     1     1     2    1
     2     2     3   ar
     3     3     4   ar
     4     4     5   ar
     5     5     6    1
     6     6     7   am
     7     7     8    2
     8     7     9    1
     9     9    10    1
    10    10    11    1
    11    11    12   ar
    12    12    13   ar
    13    13    14   ar
    14    14    15    1
    15    15    16    2
    16    15    17   am
    17    17    18    1
    18    18    19    1
    19    19    20   ar
    20    20    21   ar
    21    21    22   ar
    22    22    23   ar
    23    19    23   ar
    24    14    24   ar
    25    24    25   ar
    26    11    25   ar
    27     5    26   ar
    28    26    27   ar
    29     2    27   ar
    30    27    28    1
    31     1    29    1
    32     1    30    1
    33     1    31    1
    34     3    32    1
    35     4    33    1
    36     6    34    1
    37     9    35    1
    38     9    36    1
    39    10    37    1
    40    12    38    1
    41    13    39    1
    42    17    40    1
    43    18    41    1
    44    18    42    1
    45    20    43    1
    46    21    44    1
    47    22    45    1
    48    24    46    1
    49    25    47    1
    50    26    48    1
