REMARK  7 active torsions:
REMARK  status: ('A' for Active; 'I' for Inactive)
REMARK    1  A    between atoms: O_2  and  C_3 
REMARK    2  A    between atoms: C_6  and  N_7 
REMARK       I    between atoms: N_7  and  C_8 
REMARK       I    between atoms: C_8  and  N_19 
REMARK       I    between atoms: N_9  and  C_10 
REMARK    3  A    between atoms: C_10  and  C_12 
REMARK    4  A    between atoms: N_19  and  C_20 
REMARK    5  A    between atoms: C_20  and  C_21 
REMARK    6  A    between atoms: C_21  and  C_22 
REMARK    7  A    between atoms: C_32  and  O_33 
ROOT
ATOM      1  N   UNL d   1       5.396   3.050   3.485  0.00  0.00    -0.190 N 
ATOM      2  C   UNL d   1       4.907   3.340   4.781  0.00  0.00     0.704 C 
ATOM      3  N   UNL d   1       3.823   2.970   5.407  0.00  0.00    -0.023 NA
ATOM      4  C   UNL d   1       2.693   2.745   4.661  0.00  0.00     0.294 C 
ATOM      5  O   UNL d   1       2.351   3.458   3.753  0.00  0.00    -0.265 OA
ATOM      6  N   UNL d   1       5.714   4.194   5.558  0.00  0.00    -0.224 N 
ATOM      7  H   UNL d   1       6.126   3.651   3.129  0.00  0.00     0.184 HD
ATOM      8  H   UNL d   1       6.368   4.801   5.076  0.00  0.00     0.177 HD
ENDROOT
BRANCH   1   9
ATOM      9  C   UNL d   1       4.837   2.200   2.470  0.00  0.00     0.052 C 
ATOM     10  C   UNL d   1       5.190   2.178   1.127  0.00  0.00     0.033 C 
ATOM     11  C   UNL d   1       4.406   1.435   0.173  0.00  0.00     0.042 C 
ATOM     12  C   UNL d   1       3.180   0.805   0.493  0.00  0.00     0.101 C 
ATOM     13  C   UNL d   1       2.838   0.868   1.820  0.00  0.00     0.103 C 
ATOM     14  C   UNL d   1       3.827   1.300   2.743  0.00  0.00     0.069 C 
BRANCH  12  15
ATOM     15  O   UNL d   1       2.671  -0.022  -0.472  0.00  0.00    -0.353 OA
ATOM     16  C   UNL d   1       1.288  -0.115  -0.793  0.00  0.00     0.210 C 
ENDBRANCH  12  15
BRANCH  13  17
ATOM     17  O   UNL d   1       1.659   0.695   2.464  0.00  0.00    -0.353 OA
ATOM     18  C   UNL d   1       0.573  -0.000   1.933  0.00  0.00     0.210 C 
ENDBRANCH  13  17
ENDBRANCH   1   9
BRANCH   6  19
ATOM     19  C   UNL d   1       5.144   4.738   6.826  0.00  0.00     0.142 C 
BRANCH  19  20
ATOM     20  C   UNL d   1       6.031   5.747   7.558  0.00  0.00     0.057 C 
BRANCH  20  21
ATOM     21  C   UNL d   1       5.587   6.196   8.937  0.00  0.00    -0.048 A 
ATOM     22  C   UNL d   1       6.367   6.953   9.716  0.00  0.00    -0.006 A 
ATOM     23  C   UNL d   1       7.670   7.485   9.520  0.00  0.00     0.014 A 
ATOM     24  C   UNL d   1       5.641   7.142  10.982  0.00  0.00     0.038 A 
ATOM     25  C   UNL d   1       8.285   8.058  10.563  0.00  0.00     0.001 A 
ATOM     26  C   UNL d   1       7.604   8.250  11.835  0.00  0.00     0.002 A 
ATOM     27  C   UNL d   1       6.337   7.855  12.072  0.00  0.00     0.030 A 
ATOM     28  N   UNL d   1       4.483   6.604  10.947  0.00  0.00    -0.385 N 
ATOM     29  C   UNL d   1       4.313   5.848   9.672  0.00  0.00     0.155 A 
ATOM     30  H   UNL d   1       3.813   6.685  11.712  0.00  0.00     0.160 HD
ENDBRANCH  20  21
ENDBRANCH  19  20
ENDBRANCH   6  19
BRANCH   4  31
ATOM     31  C   UNL d   1       1.667   1.816   5.237  0.00  0.00     0.036 C 
ATOM     32  C   UNL d   1       1.511   0.427   5.036  0.00  0.00     0.017 C 
ATOM     33  C   UNL d   1       0.231  -0.142   5.143  0.00  0.00     0.003 C 
ATOM     34  C   UNL d   1      -0.843   0.641   5.560  0.00  0.00     0.024 C 
ATOM     35  C   UNL d   1      -0.638   1.982   5.870  0.00  0.00     0.035 C 
ATOM     36 CL   UNL d   1      -1.924   2.982   6.397  0.00  0.00    -0.084 Cl
ATOM     37  C   UNL d   1       0.600   2.567   5.695  0.00  0.00     0.041 C 
ENDBRANCH   4  31
TORSDOF 7
