REMARK  8 active torsions:
REMARK  status: ('A' for Active; 'I' for Inactive)
REMARK    1  A    between atoms: C_2  and  O_3 
REMARK    2  A    between atoms: O_3  and  C_4 
REMARK    3  A    between atoms: C_4  and  C_6 
REMARK    4  A    between atoms: C_7  and  N_8 
REMARK       I    between atoms: N_8  and  C_9 
REMARK    5  A    between atoms: C_9  and  C_11 
REMARK    6  A    between atoms: C_11  and  S_12 
REMARK    7  A    between atoms: S_12  and  C_13 
REMARK    8  A    between atoms: N_17  and  C_18 
ROOT
ATOM      1  N   UNL d   1       3.431  -4.148   1.206  0.00  0.00    -0.320 N 
ATOM      2  C   UNL d   1       2.990  -5.487   1.373  0.00  0.00     0.232 C 
ATOM      3  O   UNL d   1       3.289  -6.216   2.315  0.00  0.00    -0.272 OA
ATOM      4  H   UNL d   1       3.074  -3.598   0.429  0.00  0.00     0.169 HD
ENDROOT
BRANCH   1   5
ATOM      5  C   UNL d   1       4.291  -3.509   2.079  0.00  0.00     0.085 C 
ATOM      6  C   UNL d   1       4.731  -2.228   2.107  0.00  0.00     0.056 C 
ATOM      7  C   UNL d   1       5.800  -2.019   3.187  0.00  0.00     0.045 C 
ATOM      8  C   UNL d   1       6.075  -0.701   3.914  0.00  0.00     0.038 C 
ATOM      9  C   UNL d   1       5.419  -3.010   4.289  0.00  0.00     0.088 C 
ATOM     10  C   UNL d   1       7.279  -0.899   4.865  0.00  0.00     0.235 C 
ATOM     11  N   UNL d   1       7.068  -2.045   5.845  0.00  0.00    -0.074 N 
ATOM     12  C   UNL d   1       6.562  -3.319   5.216  0.00  0.00     0.250 C 
ATOM     13  C   UNL d   1       8.338  -2.370   6.599  0.00  0.00     0.269 C 
ATOM     14  H   UNL d   1       6.373  -1.743   6.545  0.00  0.00     0.279 HD
ATOM     15  S   UNL d   1       5.026  -4.454   3.354  0.00  0.00    -0.104 SA
BRANCH   6  16
ATOM     16  C   UNL d   1       4.396  -1.156   1.151  0.00  0.00     0.292 C 
ATOM     17  O   UNL d   1       5.249  -0.425   0.652  0.00  0.00    -0.259 OA
BRANCH  16  18
ATOM     18  O   UNL d   1       3.056  -1.057   0.981  0.00  0.00    -0.318 OA
BRANCH  18  19
ATOM     19  C   UNL d   1       2.608   0.004   0.107  0.00  0.00     0.174 C 
ATOM     20  C   UNL d   1       1.087   0.028   0.098  0.00  0.00     0.034 C 
ENDBRANCH  18  19
ENDBRANCH  16  18
ENDBRANCH   6  16
ENDBRANCH   1   5
BRANCH   2  21
ATOM     21  C   UNL d   1       2.049  -6.001   0.311  0.00  0.00     0.185 C 
BRANCH  21  22
ATOM     22  S   UNL d   1       1.534  -7.731   0.586  0.00  0.00    -0.080 SA
BRANCH  22  23
ATOM     23  C   UNL d   1       0.486  -8.264  -0.705  0.00  0.00     0.203 A 
ATOM     24  N   UNL d   1       0.340  -9.534  -1.031  0.00  0.00    -0.135 NA
ATOM     25  N   UNL d   1      -0.690  -9.592  -1.938  0.00  0.00     0.019 NA
ATOM     26  N   UNL d   1      -1.228  -8.396  -2.121  0.00  0.00     0.003 NA
ATOM     27  N   UNL d   1      -0.497  -7.549  -1.363  0.00  0.00    -0.217 N 
BRANCH  27  28
ATOM     28  C   UNL d   1      -0.710  -6.170  -1.446  0.00  0.00     0.057 C 
ATOM     29  C   UNL d   1      -1.955  -5.630  -1.137  0.00  0.00     0.031 C 
ATOM     30  C   UNL d   1      -2.108  -4.245  -1.189  0.00  0.00     0.002 C 
ATOM     31  C   UNL d   1      -1.007  -3.419  -1.438  0.00  0.00     0.000 C 
ATOM     32  C   UNL d   1       0.227  -3.972  -1.760  0.00  0.00     0.002 C 
ATOM     33  C   UNL d   1       0.345  -5.352  -1.851  0.00  0.00     0.031 C 
ENDBRANCH  27  28
ENDBRANCH  22  23
ENDBRANCH  21  22
ENDBRANCH   2  21
TORSDOF 8
