@<TRIPOS>MOLECULE
*****
 48 51 0 0 0
SMALL
GASTEIGER

@<TRIPOS>ATOM
      1 C          -1.7293   -1.5547    0.0044 C.3     1  UNL1       -0.0362
      2 C          -0.4775   -0.7112   -0.0006 C.ar    1  UNL1       -0.0083
      3 C           0.7671   -1.3467   -0.0088 C.ar    1  UNL1       -0.0553
      4 C           1.9346   -0.5891   -0.0071 C.ar    1  UNL1       -0.0606
      5 C           1.8829    0.8126    0.0060 C.ar    1  UNL1       -0.0460
      6 C           0.6640    1.5015    0.0069 C.ar    1  UNL1        0.0797
      7 C           0.6339    3.0352    0.0185 C.2     1  UNL1        0.2637
      8 O          -0.4541    3.5883    0.0200 O.2     1  UNL1       -0.2685
      9 N           1.8709    3.7530    0.0299 N.am    1  UNL1       -0.2303
     10 N           1.8868    5.2039    0.0963 N.am    1  UNL1       -0.2337
     11 C           3.0963    6.0252   -0.0352 C.2     1  UNL1        0.2353
     12 O           4.2058    5.5247   -0.0685 O.2     1  UNL1       -0.2737
     13 C           2.7880    7.6619   -0.0302 C.3     1  UNL1        0.0492
     14 C           3.6614    9.0830   -0.3061 C.3     1  UNL1       -0.0361
     15 C           2.6809   10.3420   -0.1642 C.3     1  UNL1       -0.0396
     16 C           1.6144   10.1669   -1.2554 C.3     1  UNL1       -0.0473
     17 C           0.7959    8.9268   -0.9619 C.3     1  UNL1       -0.0396
     18 C           0.2338    8.9711    0.4679 C.3     1  UNL1       -0.0473
     19 C           1.3479    9.0640    1.5204 C.3     1  UNL1       -0.0396
     20 C           2.1728   10.3208    1.2860 C.3     1  UNL1       -0.0473
     21 C           2.2613    7.8537    1.4104 C.3     1  UNL1       -0.0361
     22 C           1.7045    7.7314   -1.1259 C.3     1  UNL1       -0.0361
     23 C          -0.5218    0.7081    0.0015 C.ar    1  UNL1        0.1319
     24 O          -1.7856    1.2503   -0.0031 O.3     1  UNL1       -0.5057
     25 H          -1.4970   -2.6281    0.0171 H       1  UNL1        0.0279
     26 H          -2.3260   -1.3649   -0.8932 H       1  UNL1        0.0279
     27 H          -2.3308   -1.3472    0.8952 H       1  UNL1        0.0279
     28 H           0.8371   -2.4342   -0.0158 H       1  UNL1        0.0621
     29 H           2.8987   -1.0935   -0.0150 H       1  UNL1        0.0618
     30 H           2.8314    1.3333    0.0153 H       1  UNL1        0.0626
     31 H           2.7819    3.3188    0.0315 H       1  UNL1        0.1731
     32 H           0.9495    5.5966    0.1750 H       1  UNL1        0.1728
     33 H           4.0958    9.1641   -1.3154 H       1  UNL1        0.0278
     34 H           4.4918    9.2787    0.3919 H       1  UNL1        0.0278
     35 H           3.1374   11.3307   -0.3282 H       1  UNL1        0.0301
     36 H           2.1306   10.0427   -2.2205 H       1  UNL1        0.0271
     37 H           0.9559   11.0316   -1.3794 H       1  UNL1        0.0271
     38 H          -0.0159    8.8280   -1.6886 H       1  UNL1        0.0301
     39 H          -0.3658    8.0732    0.6563 H       1  UNL1        0.0271
     40 H          -0.4255    9.8387    0.5632 H       1  UNL1        0.0271
     41 H           0.9227    9.0848    2.5294 H       1  UNL1        0.0301
     42 H           3.0461   10.3197    1.9563 H       1  UNL1        0.0271
     43 H           1.5919   11.2096    1.5563 H       1  UNL1        0.0271
     44 H           1.7103    6.9789    1.7616 H       1  UNL1        0.0278
     45 H           3.1178    7.9411    2.0991 H       1  UNL1        0.0278
     46 H           2.2026    7.7040   -2.1068 H       1  UNL1        0.0278
     47 H           1.0426    6.8727   -1.1487 H       1  UNL1        0.0278
     48 H          -1.7067    2.2262   -0.0093 H       1  UNL1        0.2922
@<TRIPOS>BOND
     1     1     2    1
     2     2     3   ar
     3     3     4   ar
     4     4     5   ar
     5     5     6   ar
     6     6     7    1
     7     7     8    2
     8     7     9   am
     9     9    10    1
    10    10    11   am
    11    11    12    2
    12    11    13    1
    13    13    14    1
    14    14    15    1
    15    15    16    1
    16    16    17    1
    17    17    18    1
    18    18    19    1
    19    19    20    1
    20    15    20    1
    21    19    21    1
    22    13    21    1
    23    17    22    1
    24    13    22    1
    25     6    23   ar
    26     2    23   ar
    27    23    24    1
    28     1    25    1
    29     1    26    1
    30     1    27    1
    31     3    28    1
    32     4    29    1
    33     5    30    1
    34     9    31    1
    35    10    32    1
    36    14    33    1
    37    14    34    1
    38    15    35    1
    39    16    36    1
    40    16    37    1
    41    17    38    1
    42    18    39    1
    43    18    40    1
    44    19    41    1
    45    20    42    1
    46    20    43    1
    47    21    44    1
    48    21    45    1
    49    22    46    1
    50    22    47    1
    51    24    48    1
