REMARK  5 active torsions:
REMARK  status: ('A' for Active; 'I' for Inactive)
REMARK    1  A    between atoms: N_1  and  C_2 
REMARK    2  A    between atoms: C_2  and  C_16 
REMARK    3  A    between atoms: N_3  and  O_4 
REMARK    4  A    between atoms: O_4  and  C_5 
REMARK       I    between atoms: C_5  and  N_7 
REMARK    5  A    between atoms: N_7  and  C_8 
ROOT
ATOM      1  O   UNL d   1       2.425   1.086  -2.175  0.00  0.00    -0.154 OA
ENDROOT
BRANCH   1   2
ATOM      2  N   UNL d   1       3.212   0.618  -1.069  0.00  0.00    -0.105 NA
ATOM      3  C   UNL d   1       2.529   0.072  -0.102  0.00  0.00     0.159 C 
BRANCH   3   4
ATOM      4  N   UNL d   1       1.164  -0.048  -0.089  0.00  0.00    -0.382 N 
ATOM      5  H   UNL d   1       0.641   0.429  -0.810  0.00  0.00     0.157 HD
ATOM      6  H   UNL d   1       0.670  -0.298   0.758  0.00  0.00     0.157 HD
ENDBRANCH   3   4
BRANCH   3   7
ATOM      7  C   UNL d   1       3.304  -0.516   1.064  0.00  0.00     0.011 A 
ATOM      8  C   UNL d   1       4.493   0.081   1.502  0.00  0.00     0.015 A 
ATOM      9  C   UNL d   1       5.318  -0.574   2.428  0.00  0.00     0.001 A 
ATOM     10  C   UNL d   1       4.925  -1.791   2.985  0.00  0.00     0.000 A 
ATOM     11  C   UNL d   1       3.714  -2.364   2.602  0.00  0.00     0.001 A 
ATOM     12  C   UNL d   1       2.905  -1.730   1.646  0.00  0.00     0.015 A 
ENDBRANCH   3   7
ENDBRANCH   1   2
BRANCH   1  13
ATOM     13  C   UNL d   1       3.274   1.529  -3.190  0.00  0.00     0.389 C 
ATOM     14  O   UNL d   1       4.507   1.487  -3.122  0.00  0.00    -0.236 OA
ATOM     15  N   UNL d   1       2.594   2.091  -4.277  0.00  0.00    -0.301 N 
ATOM     16  H   UNL d   1       1.613   2.300  -4.149  0.00  0.00     0.171 HD
BRANCH  15  17
ATOM     17  C   UNL d   1       3.277   2.632  -5.403  0.00  0.00     0.038 A 
ATOM     18  C   UNL d   1       4.358   1.942  -5.963  0.00  0.00     0.031 A 
ATOM     19  C   UNL d   1       5.076   2.462  -7.045  0.00  0.00     0.028 A 
ATOM     20  C   UNL d   1       4.735   3.702  -7.579  0.00  0.00     0.055 A 
ATOM     21 CL   UNL d   1       5.680   4.295  -8.900  0.00  0.00    -0.083 Cl
ATOM     22  C   UNL d   1       3.652   4.405  -7.038  0.00  0.00     0.058 A 
ATOM     23 CL   UNL d   1       3.221   5.981  -7.616  0.00  0.00    -0.082 Cl
ATOM     24  C   UNL d   1       2.900   3.856  -5.976  0.00  0.00     0.055 A 
ENDBRANCH  15  17
ENDBRANCH   1  13
TORSDOF 5
