@<TRIPOS>MOLECULE
*****
 49 53 0 0 0
SMALL
GASTEIGER

@<TRIPOS>ATOM
      1 C           1.1167   -0.0341    0.0563 C.3     1  UNL1       -0.0223
      2 C           2.6249   -0.0892    0.0354 C.ar    1  UNL1        0.0414
      3 C           3.2588   -1.3253    0.0723 C.ar    1  UNL1       -0.0278
      4 C           4.6594   -1.3908    0.0751 C.ar    1  UNL1        0.0509
      5 C           5.4277   -2.6670    0.1243 C.2     1  UNL1        0.2505
      6 O           6.6514   -2.6058    0.0671 O.2     1  UNL1       -0.2698
      7 N           4.7021   -3.8400    0.1449 N.am    1  UNL1       -0.2606
      8 C           5.3689   -5.0371    0.1430 C.ar    1  UNL1        0.1652
      9 N           6.4400   -5.3830    0.8106 N.ar    1  UNL1       -0.2245
     10 C           6.7718   -6.6822    0.4783 C.ar    1  UNL1        0.0817
     11 C           7.8987   -7.3269    1.1446 C.ar    1  UNL1        0.0189
     12 C           9.0168   -7.8888    0.5747 C.ar    1  UNL1        0.0115
     13 N           9.7978   -8.3891    1.5895 N.ar    1  UNL1       -0.3565
     14 C           9.1834   -8.1952    2.8108 C.ar    1  UNL1        0.1022
     15 C           9.6636   -8.5865    4.1161 C.2     1  UNL1        0.2578
     16 N          10.8709   -9.2148    4.1847 N.am    1  UNL1       -0.3241
     17 O           9.0438   -8.3875    5.1622 O.2     1  UNL1       -0.2688
     18 C           7.9926   -7.5319    2.5389 C.ar    1  UNL1       -0.0227
     19 C           5.9640   -7.2787   -0.4686 C.ar    1  UNL1        0.0049
     20 S           4.6706   -6.2229   -0.8659 S.2     1  UNL1       -0.0599
     21 C           5.3663   -0.1715    0.0513 C.ar    1  UNL1        0.0507
     22 C           6.7121    0.2533    0.0506 C.ar    1  UNL1        0.0594
     23 N           6.8481    1.5798    0.0534 N.ar    1  UNL1       -0.1768
     24 N           5.5674    2.0331    0.0517 N.ar    1  UNL1       -0.2415
     25 C           5.3941    3.4864    0.0954 C.3     1  UNL1        0.0749
     26 C           3.9719    3.9158    0.1334 C.ar    1  UNL1        0.0112
     27 C           3.0185    3.6379    1.0952 C.ar    1  UNL1       -0.0498
     28 C           1.7166    4.0163    0.6696 C.ar    1  UNL1       -0.0544
     29 C           1.7439    4.6714   -0.5402 C.ar    1  UNL1       -0.0240
     30 S           3.3188    4.7851   -1.1848 S.2     1  UNL1       -0.0998
     31 C           4.6357    1.0060    0.0220 C.ar    1  UNL1        0.1595
     32 N           3.2858    1.0840   -0.0058 N.ar    1  UNL1       -0.2327
     33 H           0.6817   -1.0406    0.0626 H       1  UNL1        0.0292
     34 H           0.7381    0.4824   -0.8309 H       1  UNL1        0.0292
     35 H           0.7585    0.4823    0.9531 H       1  UNL1        0.0292
     36 H           2.6416   -2.2131    0.1025 H       1  UNL1        0.0643
     37 H           3.7432   -3.8744   -0.1536 H       1  UNL1        0.1571
     38 H           9.3353   -7.9535   -0.4571 H       1  UNL1        0.0813
     39 H          10.6930   -8.8352    1.4506 H       1  UNL1        0.1655
     40 H          11.4737   -9.4167    3.4065 H       1  UNL1        0.1453
     41 H          11.1881   -9.4569    5.1150 H       1  UNL1        0.1453
     42 H           7.2684   -7.2389    3.2900 H       1  UNL1        0.0647
     43 H           6.0410   -8.2705   -0.8867 H       1  UNL1        0.0716
     44 H           7.6034   -0.3611    0.0536 H       1  UNL1        0.0855
     45 H           5.9161    3.8851   -0.7847 H       1  UNL1        0.0564
     46 H           5.9243    3.8572    0.9828 H       1  UNL1        0.0564
     47 H           3.2248    3.0416    1.9792 H       1  UNL1        0.0626
     48 H           0.8088    3.7889    1.2118 H       1  UNL1        0.0623
     49 H           0.9148    5.0733   -1.1004 H       1  UNL1        0.0693
@<TRIPOS>BOND
     1     1     2    1
     2     2     3   ar
     3     3     4   ar
     4     4     5    1
     5     5     6    2
     6     5     7   am
     7     7     8    1
     8     8     9   ar
     9     9    10   ar
    10    10    11    1
    11    11    12   ar
    12    12    13   ar
    13    13    14   ar
    14    14    15    1
    15    15    16   am
    16    15    17    2
    17    14    18   ar
    18    11    18   ar
    19    10    19   ar
    20    19    20   ar
    21     8    20   ar
    22     4    21   ar
    23    21    22   ar
    24    22    23   ar
    25    23    24   ar
    26    24    25    1
    27    25    26    1
    28    26    27   ar
    29    27    28   ar
    30    28    29   ar
    31    29    30   ar
    32    26    30   ar
    33    24    31   ar
    34    21    31   ar
    35    31    32   ar
    36     2    32   ar
    37     1    33    1
    38     1    34    1
    39     1    35    1
    40     3    36    1
    41     7    37    1
    42    12    38    1
    43    13    39    1
    44    16    40    1
    45    16    41    1
    46    18    42    1
    47    19    43    1
    48    22    44    1
    49    25    45    1
    50    25    46    1
    51    27    47    1
    52    28    48    1
    53    29    49    1
