@<TRIPOS>MOLECULE
*****
 60 61 0 0 0
SMALL
GASTEIGER

@<TRIPOS>ATOM
      1 C          20.4174  -15.6150   -0.1518 C.3     1  UNL1       -0.0653
      2 C          19.3089  -14.5744   -0.2051 C.3     1  UNL1       -0.0552
      3 C          19.5386  -13.5943   -1.3545 C.3     1  UNL1       -0.0438
      4 C          18.4268  -12.5475   -1.4426 C.3     1  UNL1        0.0011
      5 S          18.7463  -11.5120   -2.9056 S.3     1  UNL1       -0.0860
      6 C          17.3880  -10.3945   -2.8047 C.ar    1  UNL1        0.1896
      7 N          16.2553  -10.6376   -3.4762 N.ar    1  UNL1       -0.2295
      8 C          15.3056   -9.6612   -3.4838 C.ar    1  UNL1        0.0455
      9 C          15.4492   -8.4274   -2.8932 C.ar    1  UNL1        0.0916
     10 C          14.2967   -7.4681   -2.9366 C.2     1  UNL1        0.2487
     11 O          13.2093   -7.8031   -3.4109 O.2     1  UNL1       -0.2700
     12 N          14.4855   -6.2148   -2.4160 N.am    1  UNL1       -0.3055
     13 C          13.4378   -5.1952   -2.2434 C.3     1  UNL1        0.0591
     14 C          13.8717   -3.9468   -1.3907 C.3     1  UNL1        0.0204
     15 C          13.3584   -2.6790   -2.0356 C.ar    1  UNL1        0.0054
     16 C          14.0221   -2.0147   -3.0763 C.ar    1  UNL1       -0.0495
     17 C          13.5754   -0.7603   -3.4934 C.ar    1  UNL1       -0.0159
     18 C          12.3926   -0.2125   -2.9771 C.ar    1  UNL1        0.1615
     19 O          12.0287    0.9683   -3.5742 O.3     1  UNL1       -0.4915
     20 C          10.7448    1.4912   -3.2410 C.3     1  UNL1        0.0790
     21 C          11.7093   -0.8914   -1.9548 C.ar    1  UNL1        0.1619
     22 O          10.6023   -0.3144   -1.4059 O.3     1  UNL1       -0.4914
     23 C           9.9316   -0.9830   -0.3518 C.3     1  UNL1        0.0790
     24 C          12.1983   -2.1152   -1.5023 C.ar    1  UNL1       -0.0078
     25 N          15.3760   -3.8853   -1.1148 N.4     1  UNL1        0.2375
     26 C          15.8456   -2.6049   -0.4608 C.3     1  UNL1       -0.0427
     27 C          15.8465   -4.9658   -0.1791 C.3     1  UNL1       -0.0427
     28 C          16.6966   -8.2941   -2.3109 C.ar    1  UNL1        0.1456
     29 CL         17.4477   -6.8389   -1.8259 Cl      1  UNL1       -0.0611
     30 N          17.6381   -9.2453   -2.1987 N.ar    1  UNL1       -0.2095
     31 H          20.2449  -16.3156    0.6706 H       1  UNL1        0.0230
     32 H          21.3919  -15.1402    0.0029 H       1  UNL1        0.0230
     33 H          20.4606  -16.1877   -1.0841 H       1  UNL1        0.0230
     34 H          19.2726  -14.0346    0.7480 H       1  UNL1        0.0263
     35 H          18.3451  -15.0803   -0.3329 H       1  UNL1        0.0263
     36 H          19.5931  -14.1596   -2.2939 H       1  UNL1        0.0273
     37 H          20.5105  -13.1024   -1.2142 H       1  UNL1        0.0273
     38 H          18.4018  -11.9458   -0.5257 H       1  UNL1        0.0381
     39 H          17.4545  -13.0342   -1.5630 H       1  UNL1        0.0381
     40 H          14.4044   -9.9165   -4.0377 H       1  UNL1        0.0839
     41 H          15.4381   -5.8990   -2.4947 H       1  UNL1        0.1492
     42 H          12.5534   -5.6460   -1.7641 H       1  UNL1        0.0522
     43 H          13.1123   -4.8991   -3.2465 H       1  UNL1        0.0522
     44 H          13.4382   -4.0311   -0.3839 H       1  UNL1        0.0920
     45 H          14.9106   -2.4267   -3.5491 H       1  UNL1        0.0623
     46 H          14.1533   -0.1978   -4.2272 H       1  UNL1        0.0655
     47 H          10.5380    2.3553   -3.8756 H       1  UNL1        0.0660
     48 H          10.7424    1.8488   -2.2060 H       1  UNL1        0.0660
     49 H           9.9490    0.7587   -3.4272 H       1  UNL1        0.0660
     50 H           9.0829   -0.3641   -0.0548 H       1  UNL1        0.0660
     51 H          10.5908   -1.0950    0.5153 H       1  UNL1        0.0660
     52 H           9.5469   -1.9499   -0.6913 H       1  UNL1        0.0660
     53 H          11.6833   -2.6497   -0.7101 H       1  UNL1        0.0660
     54 H          15.8365   -3.9316   -2.0327 H       1  UNL1        0.2035
     55 H          15.4476   -2.5935    0.5565 H       1  UNL1        0.0778
     56 H          15.5193   -1.7306   -1.0163 H       1  UNL1        0.0778
     57 H          16.9390   -2.6391   -0.4559 H       1  UNL1        0.0778
     58 H          15.4610   -4.7785    0.8193 H       1  UNL1        0.0778
     59 H          16.9370   -4.9240   -0.1967 H       1  UNL1        0.0778
     60 H          15.4711   -5.9418   -0.4639 H       1  UNL1        0.0778
@<TRIPOS>UNITY_ATOM_ATTR
25 1
charge 1
@<TRIPOS>BOND
     1     1     2    1
     2     2     3    1
     3     3     4    1
     4     4     5    1
     5     5     6    1
     6     6     7   ar
     7     7     8   ar
     8     8     9   ar
     9     9    10    1
    10    10    11    2
    11    10    12   am
    12    12    13    1
    13    15    16   ar
    14    16    17   ar
    15    17    18   ar
    16    18    19    1
    17    19    20    1
    18    18    21   ar
    19    21    22    1
    20    22    23    1
    21    21    24   ar
    22    15    24   ar
    23    14    25    1
    24    25    26    1
    25    25    27    1
    26     9    28   ar
    27    28    29    1
    28    28    30   ar
    29     6    30   ar
    30    14    15    1
    31    14    13    1
    32     1    31    1
    33     1    32    1
    34     1    33    1
    35     2    34    1
    36     2    35    1
    37     3    36    1
    38     3    37    1
    39     4    38    1
    40     4    39    1
    41     8    40    1
    42    12    41    1
    43    13    42    1
    44    13    43    1
    45    14    44    1
    46    16    45    1
    47    17    46    1
    48    20    47    1
    49    20    48    1
    50    20    49    1
    51    23    50    1
    52    23    51    1
    53    23    52    1
    54    24    53    1
    55    25    54    1
    56    26    55    1
    57    26    56    1
    58    26    57    1
    59    27    58    1
    60    27    59    1
    61    27    60    1
