@<TRIPOS>MOLECULE
*****
 52 55 0 0 0
SMALL
GASTEIGER

@<TRIPOS>ATOM
      1 C           1.1649   -0.0169   -0.0607 C.3     1  UNL1        0.0820
      2 O           2.6005   -0.0189   -0.0607 O.3     1  UNL1       -0.4645
      3 C           3.1552   -1.2571    0.0194 C.2     1  UNL1        0.3389
      4 O           2.5459   -2.3147    0.0868 O.2     1  UNL1       -0.2450
      5 C           4.6393   -1.1929    0.0342 C.ar    1  UNL1        0.0591
      6 C           5.4162   -2.1771   -0.5986 C.ar    1  UNL1       -0.0460
      7 C           6.8248   -2.2152   -0.4324 C.ar    1  UNL1       -0.0397
      8 C           7.4776   -1.2240    0.3171 C.ar    1  UNL1        0.0334
      9 N           8.9104   -1.1586    0.3931 N.am    1  UNL1       -0.2848
     10 C           9.6103   -0.1145    1.0298 C.2     1  UNL1        0.2275
     11 O           9.0682    0.8027    1.6422 O.2     1  UNL1       -0.2746
     12 C          11.1408   -0.1831    0.9860 C.3     1  UNL1        0.0779
     13 S          11.8735    1.1849    1.9849 S.3     1  UNL1       -0.0783
     14 C          13.6412    1.1709    1.9139 C.ar    1  UNL1        0.1724
     15 N          14.1945    2.3571    1.9077 N.ar    1  UNL1       -0.2209
     16 C          15.5947    2.3698    1.9160 C.ar    1  UNL1        0.1043
     17 C          16.5052    3.4600    1.8894 C.ar    1  UNL1        0.0257
     18 C          16.3100    4.8972    1.9449 C.ar    1  UNL1       -0.0144
     19 C          16.8471    5.7496    0.9688 C.ar    1  UNL1       -0.0539
     20 C          16.7274    7.1374    1.1021 C.ar    1  UNL1       -0.0612
     21 C          16.0196    7.6765    2.1757 C.ar    1  UNL1       -0.0617
     22 C          15.4841    6.8339    3.1483 C.ar    1  UNL1       -0.0612
     23 C          15.6389    5.4509    3.0387 C.ar    1  UNL1       -0.0539
     24 C          17.7773    2.8997    1.9179 C.ar    1  UNL1        0.0121
     25 N          17.6470    1.5331    1.9415 N.ar    1  UNL1       -0.3546
     26 C          16.3183    1.2142    1.9403 C.ar    1  UNL1        0.1310
     27 C          15.7296   -0.0709    1.9590 C.ar    1  UNL1        0.2785
     28 O          16.4069   -1.1042    1.9621 O.2     1  UNL1       -0.2653
     29 N          14.3382   -0.0437    1.9608 N.ar    1  UNL1       -0.2892
     30 C          13.7015   -1.3357    2.0183 C.3     1  UNL1        0.0172
     31 C           6.6658   -0.2791    0.9561 C.ar    1  UNL1       -0.0397
     32 C           5.2778   -0.2430    0.8141 C.ar    1  UNL1       -0.0460
     33 H           0.8150    1.0136   -0.1828 H       1  UNL1        0.0661
     34 H           0.7789   -0.3960    0.8916 H       1  UNL1        0.0661
     35 H           0.7731   -0.6085   -0.8950 H       1  UNL1        0.0661
     36 H           4.9212   -2.9199   -1.2234 H       1  UNL1        0.0626
     37 H           7.3698   -3.0386   -0.8904 H       1  UNL1        0.0636
     38 H           9.4249   -1.8702   -0.1161 H       1  UNL1        0.1548
     39 H          11.4985   -0.1438   -0.0461 H       1  UNL1        0.0475
     40 H          11.3484   -1.1472    1.4465 H       1  UNL1        0.0475
     41 H          17.3549    5.3433    0.0974 H       1  UNL1        0.0624
     42 H          17.1855    7.7994    0.3714 H       1  UNL1        0.0618
     43 H          15.8808    8.7517    2.2532 H       1  UNL1        0.0618
     44 H          14.9511    7.2496    3.9985 H       1  UNL1        0.0618
     45 H          15.2410    4.8025    3.8152 H       1  UNL1        0.0624
     46 H          18.7597    3.3556    1.9470 H       1  UNL1        0.0814
     47 H          18.4048    0.8600    1.9662 H       1  UNL1        0.1656
     48 H          14.3950   -2.1678    2.1374 H       1  UNL1        0.0457
     49 H          13.2191   -1.4958    1.0535 H       1  UNL1        0.0457
     50 H          12.9902   -1.3583    2.8496 H       1  UNL1        0.0457
     51 H           7.0678    0.4734    1.6196 H       1  UNL1        0.0636
     52 H           4.7259    0.5229    1.3509 H       1  UNL1        0.0626
@<TRIPOS>BOND
     1     1     2    1
     2     2     3    1
     3     3     4    2
     4     3     5    1
     5     5     6   ar
     6     6     7   ar
     7     7     8   ar
     8     8     9    1
     9     9    10   am
    10    10    11    2
    11    10    12    1
    12    12    13    1
    13    13    14    1
    14    14    15   ar
    15    15    16   ar
    16    16    17   ar
    17    17    18    1
    18    18    19   ar
    19    19    20   ar
    20    20    21   ar
    21    21    22   ar
    22    22    23   ar
    23    18    23   ar
    24    17    24   ar
    25    24    25   ar
    26    25    26   ar
    27    16    26   ar
    28    26    27   ar
    29    27    28    2
    30    27    29   ar
    31    14    29   ar
    32    29    30    1
    33     8    31   ar
    34    31    32   ar
    35     5    32   ar
    36     1    33    1
    37     1    34    1
    38     1    35    1
    39     6    36    1
    40     7    37    1
    41     9    38    1
    42    12    39    1
    43    12    40    1
    44    19    41    1
    45    20    42    1
    46    21    43    1
    47    22    44    1
    48    23    45    1
    49    24    46    1
    50    25    47    1
    51    30    48    1
    52    30    49    1
    53    30    50    1
    54    31    51    1
    55    32    52    1
