@<TRIPOS>MOLECULE
*****
 39 41 0 0 0
SMALL
GASTEIGER

@<TRIPOS>ATOM
      1 C           1.0368   -0.0340    0.0616 C.3     1  UNL1       -0.0397
      2 C           2.5378   -0.0290    0.0626 C.ar    1  UNL1       -0.0496
      3 C           3.2555    1.1764    0.0640 C.ar    1  UNL1       -0.0552
      4 C           4.6586    1.1945    0.0727 C.ar    1  UNL1       -0.0158
      5 C           5.2936   -0.0477    0.0762 C.ar    1  UNL1        0.1676
      6 O           6.6351   -0.2873    0.0840 O.2     1  UNL1       -0.3543
      7 N           6.8698   -1.6637    0.0837 N.ar    1  UNL1       -0.0804
      8 C           5.6541   -2.2363    0.0758 C.ar    1  UNL1        0.1084
      9 C           5.4326   -3.7166    0.0724 C.3     1  UNL1        0.0593
     10 N           6.6501   -4.5010    0.0762 N.am    1  UNL1       -0.2937
     11 C           6.5833   -5.8715    0.0836 C.2     1  UNL1        0.3002
     12 O           5.5232   -6.4928    0.0742 O.2     1  UNL1       -0.2528
     13 N           7.8057   -6.4735    0.1141 N.am    1  UNL1       -0.2953
     14 C           7.9774   -7.9241    0.1141 C.3     1  UNL1        0.0383
     15 C           9.4213   -8.4083    0.1076 C.ar    1  UNL1       -0.0301
     16 C          10.5132   -7.5260    0.0814 C.ar    1  UNL1       -0.0544
     17 C          11.8124   -7.9853   -0.1307 C.ar    1  UNL1       -0.0261
     18 C          12.0580   -9.3461   -0.1717 C.ar    1  UNL1        0.1234
     19 F          13.3067   -9.7822   -0.3809 F       1  UNL1       -0.2055
     20 C          11.0240  -10.2549    0.0049 C.ar    1  UNL1       -0.0261
     21 C           9.7026   -9.7914    0.0878 C.ar    1  UNL1       -0.0544
     22 C           4.6248   -1.2562    0.0717 C.ar    1  UNL1        0.0461
     23 C           3.2207   -1.2579    0.0651 C.ar    1  UNL1       -0.0462
     24 H           0.6319    0.9824    0.0606 H       1  UNL1        0.0278
     25 H           0.6655   -0.5463    0.9552 H       1  UNL1        0.0278
     26 H           0.6655   -0.5489   -0.8304 H       1  UNL1        0.0278
     27 H           2.7177    2.1243    0.0591 H       1  UNL1        0.0621
     28 H           5.2136    2.1256    0.0766 H       1  UNL1        0.0655
     29 H           4.8535   -3.9950   -0.8159 H       1  UNL1        0.0529
     30 H           4.8451   -3.9974    0.9546 H       1  UNL1        0.0529
     31 H           7.5281   -4.0012    0.0887 H       1  UNL1        0.1506
     32 H           8.6020   -5.8700    0.0326 H       1  UNL1        0.1506
     33 H           7.4729   -8.3143   -0.7806 H       1  UNL1        0.0512
     34 H           7.4559   -8.3252    0.9909 H       1  UNL1        0.0512
     35 H          10.3914   -6.4585    0.2120 H       1  UNL1        0.0622
     36 H          12.6263   -7.2800   -0.2590 H       1  UNL1        0.0646
     37 H          11.2549  -11.3148    0.0568 H       1  UNL1        0.0646
     38 H           8.8988  -10.5257    0.1287 H       1  UNL1        0.0622
     39 H           2.6718   -2.1954    0.0628 H       1  UNL1        0.0628
@<TRIPOS>BOND
     1     1     2    1
     2     2     3   ar
     3     3     4   ar
     4     4     5   ar
     5     5     6   ar
     6     6     7   ar
     7     7     8   ar
     8     8     9    1
     9     9    10    1
    10    10    11   am
    11    11    12    2
    12    11    13   am
    13    13    14    1
    14    14    15    1
    15    15    16   ar
    16    16    17   ar
    17    17    18   ar
    18    18    19    1
    19    18    20   ar
    20    20    21   ar
    21    15    21   ar
    22     8    22   ar
    23     5    22   ar
    24    22    23   ar
    25     2    23   ar
    26     1    24    1
    27     1    25    1
    28     1    26    1
    29     3    27    1
    30     4    28    1
    31     9    29    1
    32     9    30    1
    33    10    31    1
    34    13    32    1
    35    14    33    1
    36    14    34    1
    37    16    35    1
    38    17    36    1
    39    20    37    1
    40    21    38    1
    41    23    39    1
