@<TRIPOS>MOLECULE
*****
 44 47 0 0 0
SMALL
GASTEIGER

@<TRIPOS>ATOM
      1 N           1.0520   -0.0427   -0.1123 N.pl3   1  UNL1       -0.3385
      2 C           2.4253   -0.0414   -0.0847 C.ar    1  UNL1        0.1839
      3 C           3.1251    1.1523   -0.1324 C.ar    1  UNL1       -0.0056
      4 C           4.5144    1.1220   -0.1147 C.ar    1  UNL1        0.0422
      5 C           5.1307   -0.1259   -0.0868 C.ar    1  UNL1        0.2145
      6 N           4.3835   -1.2394   -0.0367 N.ar    1  UNL1       -0.1002
      7 N           3.0599   -1.2241   -0.0380 N.ar    1  UNL1        0.0157
      8 C           6.6183   -0.2895   -0.0290 C.3     1  UNL1        0.0508
      9 C           7.3437    0.9687   -0.4853 C.3     1  UNL1        0.0246
     10 N           6.7453    2.1103    0.1790 N.am    1  UNL1       -0.2962
     11 C           7.3553    2.8874    1.1504 C.2     1  UNL1        0.2202
     12 O           6.6851    3.7654    1.6961 O.2     1  UNL1       -0.2752
     13 C           8.8255    2.6027    1.5216 C.3     1  UNL1        0.0493
     14 C           9.4127    3.5950    2.4980 C.ar    1  UNL1       -0.0383
     15 C           9.0477    4.9618    2.4118 C.ar    1  UNL1       -0.0578
     16 C           9.4042    5.8563    3.3943 C.ar    1  UNL1       -0.0580
     17 C          10.3480    5.3601    4.2341 C.ar    1  UNL1       -0.0442
     18 C          11.1211    4.2499    4.1167 C.ar    1  UNL1       -0.0439
     19 C          10.4036    3.2092    3.4267 C.ar    1  UNL1       -0.0547
     20 C          12.4406    4.4154    5.5816 C.3     1  UNL1       -0.0271
     21 C          11.4620    3.4418    5.4828 C.3     1  UNL1       -0.0450
     22 C          11.0929    5.4058    5.4120 C.3     1  UNL1       -0.0271
     23 C           5.3434    2.3835   -0.1611 C.3     1  UNL1        0.0458
     24 H           0.5138    0.8133   -0.1011 H       1  UNL1        0.1439
     25 H           0.5471   -0.9183   -0.0477 H       1  UNL1        0.1439
     26 H           2.5908    2.0991   -0.1692 H       1  UNL1        0.0659
     27 H           4.8495   -2.1474    0.0121 H       1  UNL1        0.4893
     28 H           6.9215   -1.1357   -0.6507 H       1  UNL1        0.0388
     29 H           6.8771   -0.5011    1.0149 H       1  UNL1        0.0388
     30 H           7.2270    1.1221   -1.5645 H       1  UNL1        0.0470
     31 H           8.4100    0.8737   -0.2724 H       1  UNL1        0.0470
     32 H           9.4612    2.6455    0.6280 H       1  UNL1        0.0407
     33 H           8.8878    1.5914    1.9426 H       1  UNL1        0.0407
     34 H           8.3976    5.3130    1.6165 H       1  UNL1        0.0620
     35 H           8.9649    6.8422    3.4712 H       1  UNL1        0.0620
     36 H          10.5356    2.1458    3.6569 H       1  UNL1        0.0623
     37 H          12.2070    4.4439    6.7348 H       1  UNL1        0.0313
     38 H          13.4344    4.4672    5.2630 H       1  UNL1        0.0313
     39 H          11.2690    2.8129    6.3184 H       1  UNL1        0.0272
     40 H          12.3325    2.8636    4.8747 H       1  UNL1        0.0272
     41 H          11.9384    6.1343    4.9850 H       1  UNL1        0.0313
     42 H          10.6885    5.8601    6.2973 H       1  UNL1        0.0313
     43 H           5.3345    2.7833   -1.1813 H       1  UNL1        0.0516
     44 H           4.9014    3.1368    0.5004 H       1  UNL1        0.0516
@<TRIPOS>UNITY_ATOM_ATTR
6 1
charge 1
@<TRIPOS>BOND
     1     1     2    1
     2     2     3   ar
     3     3     4   ar
     4     4     5   ar
     5     5     6   ar
     6     6     7   ar
     7     2     7   ar
     8     5     8    1
     9     8     9    1
    10     9    10    1
    11    10    11   am
    12    11    12    2
    13    11    13    1
    14    13    14    1
    15    14    15   ar
    16    15    16   ar
    17    16    17   ar
    18    17    18   ar
    19    18    19   ar
    20    14    19   ar
    21    18    20    1
    22    20    21    1
    23    21    22    1
    24    17    22    1
    25    10    23    1
    26     4    23    1
    27     1    24    1
    28     1    25    1
    29     3    26    1
    30     6    27    1
    31     8    28    1
    32     8    29    1
    33     9    30    1
    34     9    31    1
    35    13    32    1
    36    13    33    1
    37    15    34    1
    38    16    35    1
    39    19    36    1
    40    20    37    1
    41    20    38    1
    42    21    39    1
    43    21    40    1
    44    22    41    1
    45    22    42    1
    46    23    43    1
    47    23    44    1
