@<TRIPOS>MOLECULE
*****
 32 33 0 0 0
SMALL
GASTEIGER

@<TRIPOS>ATOM
      1 N           0.9892   -0.0951   -0.2367 N.3     1  UNL1       -0.2541
      2 N           2.3940   -0.1333   -0.5220 N.am    1  UNL1       -0.2495
      3 C           3.0728   -1.3417   -0.3012 C.2     1  UNL1        0.2592
      4 O           2.5302   -2.4450   -0.2718 O.2     1  UNL1       -0.2688
      5 C           4.5514   -1.2603   -0.0560 C.ar    1  UNL1        0.0591
      6 C           5.3174   -2.1809   -0.7976 C.ar    1  UNL1       -0.0478
      7 C           6.6964   -2.2894   -0.6139 C.ar    1  UNL1       -0.0609
      8 C           7.3417   -1.4361    0.2734 C.ar    1  UNL1       -0.0600
      9 C           6.6003   -0.5049    1.0145 C.ar    1  UNL1       -0.0397
     10 C           5.1977   -0.4129    0.8818 C.ar    1  UNL1        0.0459
     11 N           4.5374    0.5522    1.7050 N.am    1  UNL1       -0.2807
     12 C           3.2399    0.3688    2.1583 C.2     1  UNL1        0.2538
     13 O           2.7242   -0.7349    2.2023 O.2     1  UNL1       -0.2697
     14 C           2.4203    1.5285    2.5789 C.ar    1  UNL1        0.1072
     15 C           1.0937    1.2569    2.9531 C.ar    1  UNL1        0.1383
     16 F           0.5988    0.0114    2.9581 F       1  UNL1       -0.2046
     17 C           0.2157    2.2606    3.3347 C.ar    1  UNL1       -0.0255
     18 C           0.6731    3.5660    3.4209 C.ar    1  UNL1       -0.0563
     19 C           1.9751    3.8701    3.0129 C.ar    1  UNL1       -0.0255
     20 C           2.8332    2.8570    2.5644 C.ar    1  UNL1        0.1383
     21 F           4.0555    3.2039    2.1330 F       1  UNL1       -0.2046
     22 H           0.7032    0.8514    0.0133 H       1  UNL1        0.1405
     23 H           0.8630   -0.6447    0.6322 H       1  UNL1        0.1405
     24 H           2.9291    0.7198   -0.3985 H       1  UNL1        0.1690
     25 H           4.8262   -2.8290   -1.5223 H       1  UNL1        0.0626
     26 H           7.2592   -3.0484   -1.1538 H       1  UNL1        0.0618
     27 H           8.4222   -1.5051    0.3929 H       1  UNL1        0.0618
     28 H           7.1400    0.1043    1.7367 H       1  UNL1        0.0636
     29 H           5.1139    1.2076    2.2223 H       1  UNL1        0.1552
     30 H          -0.8086    1.9910    3.5777 H       1  UNL1        0.0646
     31 H           0.0127    4.3355    3.8119 H       1  UNL1        0.0619
     32 H           2.3221    4.8997    3.0495 H       1  UNL1        0.0646
@<TRIPOS>BOND
     1     1     2    1
     2     2     3   am
     3     3     4    2
     4     3     5    1
     5     5     6   ar
     6     6     7   ar
     7     7     8   ar
     8     8     9   ar
     9     9    10   ar
    10     5    10   ar
    11    10    11    1
    12    11    12   am
    13    12    13    2
    14    12    14    1
    15    14    15   ar
    16    15    16    1
    17    15    17   ar
    18    17    18   ar
    19    18    19   ar
    20    19    20   ar
    21    14    20   ar
    22    20    21    1
    23     1    22    1
    24     1    23    1
    25     2    24    1
    26     6    25    1
    27     7    26    1
    28     8    27    1
    29     9    28    1
    30    11    29    1
    31    17    30    1
    32    18    31    1
    33    19    32    1
