@<TRIPOS>MOLECULE
*****
 49 52 0 0 0
SMALL
GASTEIGER

@<TRIPOS>ATOM
      1 C           2.4725   -0.0015   -0.0128 C.3     1  UNL1       -0.0397
      2 C           0.9714    0.0033    0.0032 C.ar    1  UNL1       -0.0504
      3 C           0.2418   -1.1866    0.0058 C.ar    1  UNL1       -0.0581
      4 C          -1.1585   -1.1516    0.0001 C.ar    1  UNL1       -0.0494
      5 C          -1.8599    0.0718   -0.0105 C.ar    1  UNL1        0.0371
      6 C          -3.3585    0.0324   -0.0448 C.2     1  UNL1        0.2497
      7 O          -3.8781   -1.0845   -0.0795 O.2     1  UNL1       -0.2698
      8 N          -4.0621    1.2334   -0.0994 N.am    1  UNL1       -0.2607
      9 C          -5.4438    1.2403   -0.1540 C.ar    1  UNL1        0.1651
     10 N          -6.2052    2.0692   -0.8614 N.ar    1  UNL1       -0.2285
     11 C          -7.5201    1.7407   -0.5996 C.ar    1  UNL1        0.0655
     12 C          -7.7042    0.7777    0.3498 C.ar    1  UNL1        0.0150
     13 S          -6.2745    0.2006    0.9576 S.2     1  UNL1       -0.0567
     14 C          -9.1004    0.4752    0.6772 C.3     1  UNL1       -0.0185
     15 C          -9.8276    1.1427   -0.5285 C.3     1  UNL1       -0.0318
     16 C          -8.8382    2.2644   -1.0789 C.3     1  UNL1        0.0791
     17 C          -9.1591    3.6258   -0.4585 C.2     1  UNL1        0.2276
     18 O          -8.4491    4.1607    0.3828 O.2     1  UNL1       -0.2747
     19 N         -10.3654    4.1344   -0.8908 N.am    1  UNL1       -0.2641
     20 C         -10.8376    5.2866   -0.3363 C.ar    1  UNL1        0.1646
     21 N         -10.2715    6.4420   -0.0727 N.ar    1  UNL1       -0.2291
     22 C         -11.2280    7.3332    0.4546 C.ar    1  UNL1        0.0593
     23 C         -10.8081    8.7750    0.7188 C.3     1  UNL1        0.0666
     24 C         -11.8256    9.7863    1.2619 C.2     1  UNL1        0.2163
     25 N         -13.1070    9.4521    1.5409 N.am    1  UNL1       -0.3290
     26 O         -11.5098   10.9684    1.4730 O.2     1  UNL1       -0.2756
     27 C         -12.4402    6.6948    0.6403 C.ar    1  UNL1        0.0007
     28 S         -12.4750    5.1090    0.0363 S.2     1  UNL1       -0.0602
     29 C          -1.1234    1.2574    0.0046 C.ar    1  UNL1       -0.0494
     30 C           0.2778    1.2200    0.0069 C.ar    1  UNL1       -0.0581
     31 H           2.8758   -1.0195    0.0004 H       1  UNL1        0.0278
     32 H           2.8620    0.5249    0.8646 H       1  UNL1        0.0278
     33 H           2.8394    0.4925   -0.9186 H       1  UNL1        0.0278
     34 H           0.7521   -2.1485    0.0060 H       1  UNL1        0.0620
     35 H          -1.7000   -2.0982   -0.0021 H       1  UNL1        0.0625
     36 H          -3.6218    2.1036   -0.3510 H       1  UNL1        0.1571
     37 H          -9.3856    0.9626    1.6145 H       1  UNL1        0.0319
     38 H          -9.2924   -0.5985    0.7386 H       1  UNL1        0.0319
     39 H         -10.8192    1.4989   -0.2303 H       1  UNL1        0.0279
     40 H          -9.9774    0.3791   -1.3065 H       1  UNL1        0.0279
     41 H          -8.9228    2.3279   -2.1699 H       1  UNL1        0.0459
     42 H         -11.0954    3.4972   -1.1772 H       1  UNL1        0.1567
     43 H         -10.4274    9.2042   -0.2223 H       1  UNL1        0.0422
     44 H          -9.9559    8.7826    1.4146 H       1  UNL1        0.0422
     45 H         -13.5365    8.5745    1.3648 H       1  UNL1        0.1449
     46 H         -13.7425   10.1518    1.8942 H       1  UNL1        0.1449
     47 H         -13.3834    6.9746    1.0444 H       1  UNL1        0.0712
     48 H          -1.6014    2.2290    0.0125 H       1  UNL1        0.0625
     49 H           0.8309    2.1570    0.0072 H       1  UNL1        0.0620
@<TRIPOS>BOND
     1     1     2    1
     2     2     3   ar
     3     3     4   ar
     4     4     5   ar
     5     5     6    1
     6     6     7    2
     7     6     8   am
     8     8     9    1
     9     9    10   ar
    10    10    11   ar
    11    11    12   ar
    12    12    13   ar
    13     9    13   ar
    14    12    14    1
    15    14    15    1
    16    15    16    1
    17    11    16    1
    18    16    17    1
    19    17    18    2
    20    17    19   am
    21    19    20    1
    22    20    21   ar
    23    21    22   ar
    24    22    23    1
    25    23    24    1
    26    24    25   am
    27    24    26    2
    28    22    27   ar
    29    27    28   ar
    30    20    28   ar
    31     5    29   ar
    32    29    30   ar
    33     2    30   ar
    34     1    31    1
    35     1    32    1
    36     1    33    1
    37     3    34    1
    38     4    35    1
    39     8    36    1
    40    14    37    1
    41    14    38    1
    42    15    39    1
    43    15    40    1
    44    16    41    1
    45    19    42    1
    46    23    43    1
    47    23    44    1
    48    25    45    1
    49    25    46    1
    50    27    47    1
    51    29    48    1
    52    30    49    1
