REMARK  15 active torsions:
REMARK  status: ('A' for Active; 'I' for Inactive)
REMARK    1  A    between atoms: C_2  and  C_3 
REMARK    2  A    between atoms: C_4  and  C_5 
REMARK    3  A    between atoms: C_5  and  N_6 
REMARK       I    between atoms: N_6  and  C_7 
REMARK    4  A    between atoms: C_7  and  O_9 
REMARK    5  A    between atoms: O_9  and  C_10 
REMARK    6  A    between atoms: C_14  and  C_15 
REMARK    7  A    between atoms: C_17  and  C_18 
REMARK    8  A    between atoms: C_18  and  N_19 
REMARK       I    between atoms: N_19  and  C_20 
REMARK    9  A    between atoms: C_20  and  O_22 
REMARK   10  A    between atoms: O_22  and  C_23 
REMARK   11  A    between atoms: C_27  and  C_28 
REMARK   12  A    between atoms: C_30  and  C_31 
REMARK   13  A    between atoms: C_31  and  N_32 
REMARK       I    between atoms: N_32  and  C_33 
REMARK   14  A    between atoms: C_33  and  O_35 
REMARK   15  A    between atoms: O_35  and  C_36 
ROOT
ATOM      1  C   UNL d   1       2.800  -1.480  -0.018  0.00  0.00    -0.042 C 
ATOM      2  C   UNL d   1       2.041  -2.605  -0.362  0.00  0.00    -0.027 C 
ATOM      3  C   UNL d   1       2.626  -3.908  -0.152  0.00  0.00    -0.042 C 
ATOM      4  C   UNL d   1       4.052  -4.056   0.034  0.00  0.00    -0.027 C 
ATOM      5  C   UNL d   1       4.825  -2.873   0.220  0.00  0.00    -0.042 C 
ATOM      6  C   UNL d   1       4.205  -1.589   0.147  0.00  0.00    -0.027 C 
ENDROOT
BRANCH   2   7
ATOM      7  C   UNL d   1       0.629  -2.478  -0.976  0.00  0.00     0.164 C 
BRANCH   7   8
ATOM      8  N   UNL d   1       0.324  -1.230  -1.690  0.00  0.00    -0.333 N 
ATOM      9  C   UNL d   1      -0.970  -0.737  -1.774  0.00  0.00     0.361 C 
ATOM     10  O   UNL d   1      -1.940  -1.478  -1.703  0.00  0.00    -0.238 OA
ATOM     11  H   UNL d   1       1.082  -0.592  -1.864  0.00  0.00     0.165 HD
BRANCH   9  12
ATOM     12  O   UNL d   1      -1.039   0.653  -1.882  0.00  0.00    -0.294 OA
BRANCH  12  13
ATOM     13  C   UNL d   1      -2.332   1.304  -2.141  0.00  0.00     0.061 C 
ATOM     14  C   UNL d   1      -2.673   0.868  -3.559  0.00  0.00     0.046 C 
ATOM     15  C   UNL d   1      -3.439   0.950  -1.134  0.00  0.00     0.046 C 
ATOM     16  C   UNL d   1      -2.257   2.862  -2.148  0.00  0.00     0.046 C 
ENDBRANCH  12  13
ENDBRANCH   9  12
ENDBRANCH   7   8
ENDBRANCH   2   7
BRANCH   1  17
ATOM     17  C   UNL d   1       2.231  -0.110   0.190  0.00  0.00     0.035 C 
ATOM     18  C   UNL d   1       0.842   0.265   0.588  0.00  0.00     0.010 C 
ENDBRANCH   1  17
BRANCH   3  19
ATOM     19  C   UNL d   1       1.613  -5.057  -0.000  0.00  0.00     0.035 C 
ATOM     20  C   UNL d   1       2.113  -6.438   0.366  0.00  0.00     0.010 C 
ENDBRANCH   3  19
BRANCH   6  21
ATOM     21  C   UNL d   1       5.100  -0.355   0.208  0.00  0.00     0.164 C 
BRANCH  21  22
ATOM     22  N   UNL d   1       4.652   0.980  -0.012  0.00  0.00    -0.333 N 
ATOM     23  C   UNL d   1       5.439   2.044   0.201  0.00  0.00     0.361 C 
ATOM     24  O   UNL d   1       6.616   1.994   0.441  0.00  0.00    -0.238 OA
ATOM     25  H   UNL d   1       3.726   1.307  -0.151  0.00  0.00     0.165 HD
BRANCH  23  26
ATOM     26  O   UNL d   1       4.623   3.131   0.078  0.00  0.00    -0.294 OA
BRANCH  26  27
ATOM     27  C   UNL d   1       5.247   4.420   0.160  0.00  0.00     0.061 C 
ATOM     28  C   UNL d   1       5.874   4.597   1.541  0.00  0.00     0.046 C 
ATOM     29  C   UNL d   1       6.253   4.548  -0.984  0.00  0.00     0.046 C 
ATOM     30  C   UNL d   1       4.177   5.513  -0.022  0.00  0.00     0.046 C 
ENDBRANCH  26  27
ENDBRANCH  23  26
ENDBRANCH  21  22
ENDBRANCH   6  21
BRANCH   4  31
ATOM     31  C   UNL d   1       4.705  -5.456  -0.056  0.00  0.00     0.164 C 
BRANCH  31  32
ATOM     32  N   UNL d   1       6.128  -5.680  -0.048  0.00  0.00    -0.333 N 
ATOM     33  C   UNL d   1       6.643  -6.925   0.002  0.00  0.00     0.361 C 
ATOM     34  O   UNL d   1       5.995  -7.949  -0.115  0.00  0.00    -0.238 OA
ATOM     35  H   UNL d   1       6.772  -5.115   0.463  0.00  0.00     0.165 HD
BRANCH  33  36
ATOM     36  O   UNL d   1       7.980  -6.802   0.239  0.00  0.00    -0.294 OA
BRANCH  36  37
ATOM     37  C   UNL d   1       8.778  -8.004   0.221  0.00  0.00     0.061 C 
ATOM     38  C   UNL d   1       8.362  -8.917   1.374  0.00  0.00     0.046 C 
ATOM     39  C   UNL d   1       8.649  -8.680  -1.146  0.00  0.00     0.046 C 
ATOM     40  C   UNL d   1      10.261  -7.633   0.422  0.00  0.00     0.046 C 
ENDBRANCH  36  37
ENDBRANCH  33  36
ENDBRANCH  31  32
ENDBRANCH   4  31
BRANCH   5  41
ATOM     41  C   UNL d   1       6.294  -3.050   0.547  0.00  0.00     0.035 C 
ATOM     42  C   UNL d   1       7.263  -1.950   0.861  0.00  0.00     0.010 C 
ENDBRANCH   5  41
TORSDOF 15
