@<TRIPOS>MOLECULE
*****
 60 62 0 0 0
SMALL
GASTEIGER

@<TRIPOS>ATOM
      1 C           0.9077    0.0282   -0.0660 C.3     1  UNL1       -0.0652
      2 C           2.4177    0.0900   -0.0290 C.3     1  UNL1       -0.0545
      3 C           2.8237    1.4822    0.4739 C.3     1  UNL1       -0.0376
      4 C           4.3130    1.6171    0.4460 C.3     1  UNL1        0.0116
      5 N           4.8639    2.9136    0.7680 N.am    1  UNL1       -0.3135
      6 C           6.1673    2.9325    1.2279 C.2     1  UNL1        0.2384
      7 O           6.6943    1.8805    1.5962 O.2     1  UNL1       -0.2734
      8 C           6.8695    4.2704    1.5173 C.3     1  UNL1        0.1354
      9 C           6.3966    4.6262    2.9385 C.ar    1  UNL1        0.0648
     10 C           6.2813    5.9510    3.3763 C.ar    1  UNL1        0.1292
     11 O           6.5280    7.0407    2.5806 O.3     1  UNL1       -0.5062
     12 C           5.8814    6.2289    4.6834 C.ar    1  UNL1        0.0219
     13 C           5.4601    5.1968    5.5186 C.ar    1  UNL1        0.1238
     14 O           4.9905    5.3926    6.7766 O.3     1  UNL1       -0.5065
     15 C           5.4667    3.8965    5.1031 C.ar    1  UNL1        0.0219
     16 C           5.9518    3.6216    3.8552 C.ar    1  UNL1        0.1292
     17 O           5.8688    2.3024    3.5531 O.3     1  UNL1       -0.5062
     18 N           8.3802    4.3185    1.2489 N.am    1  UNL1       -0.2677
     19 C           9.1691    3.1588    0.7396 C.3     1  UNL1        0.0746
     20 C           8.5778    1.9071    0.1173 C.ar    1  UNL1        0.1221
     21 C           8.7815    0.5790    0.4919 C.ar    1  UNL1       -0.0191
     22 C           7.6752   -0.1694    0.0306 C.ar    1  UNL1       -0.0236
     23 C           6.9600    0.6892   -0.7617 C.ar    1  UNL1        0.0921
     24 O           7.5149    1.9485   -0.7707 O.2     1  UNL1       -0.4662
     25 C           9.1578    5.3663    1.7966 C.2     1  UNL1        0.2926
     26 O           8.8788    5.9903    2.8075 O.2     1  UNL1       -0.2604
     27 C          10.3442    5.8923    1.1222 C.1     1  UNL1       -0.0025
     28 C          11.2874    6.5069    0.7292 C.1     1  UNL1       -0.0566
     29 C          12.4456    7.2587    0.2974 C.ar    1  UNL1        0.0254
     30 C          13.4836    7.5505    1.1896 C.ar    1  UNL1       -0.0463
     31 C          14.6415    8.1958    0.7382 C.ar    1  UNL1       -0.0606
     32 C          14.7555    8.5707   -0.5997 C.ar    1  UNL1       -0.0617
     33 C          13.7111    8.3074   -1.4848 C.ar    1  UNL1       -0.0606
     34 C          12.5580    7.6546   -1.0368 C.ar    1  UNL1       -0.0463
     35 H           0.5602   -0.9495   -0.4054 H       1  UNL1        0.0230
     36 H           0.5206    0.7939   -0.7460 H       1  UNL1        0.0230
     37 H           0.5064    0.2201    0.9334 H       1  UNL1        0.0230
     38 H           2.8196   -0.1065   -1.0336 H       1  UNL1        0.0263
     39 H           2.8147   -0.6999    0.6226 H       1  UNL1        0.0263
     40 H           2.4489    1.6593    1.4845 H       1  UNL1        0.0280
     41 H           2.4143    2.2430   -0.1975 H       1  UNL1        0.0280
     42 H           4.5362    1.5168   -0.6105 H       1  UNL1        0.0462
     43 H           4.7784    0.8049    1.0235 H       1  UNL1        0.0462
     44 H           4.2493    3.6438    1.0972 H       1  UNL1        0.1487
     45 H           6.4671    5.0075    0.8003 H       1  UNL1        0.0650
     46 H           7.2202    6.8075    1.9374 H       1  UNL1        0.2922
     47 H           5.9110    7.2543    5.0286 H       1  UNL1        0.0691
     48 H           5.0503    6.3389    6.9640 H       1  UNL1        0.2921
     49 H           5.0958    3.0905    5.7227 H       1  UNL1        0.0691
     50 H           5.6195    1.6748    4.2401 H       1  UNL1        0.2922
     51 H           9.7016    2.8199    1.6453 H       1  UNL1        0.0545
     52 H           9.9409    3.5322    0.0645 H       1  UNL1        0.0545
     53 H           9.5068    0.2512    1.2169 H       1  UNL1        0.0652
     54 H           7.3431   -1.1582    0.3180 H       1  UNL1        0.0649
     55 H           5.9839    0.5580   -1.1978 H       1  UNL1        0.1029
     56 H          13.4115    7.2678    2.2374 H       1  UNL1        0.0630
     57 H          15.4589    8.3979    1.4267 H       1  UNL1        0.0618
     58 H          15.6566    9.0671   -0.9524 H       1  UNL1        0.0618
     59 H          13.7988    8.6003   -2.5279 H       1  UNL1        0.0618
     60 H          11.7570    7.4450   -1.7406 H       1  UNL1        0.0630
@<TRIPOS>BOND
     1     1     2    1
     2     2     3    1
     3     3     4    1
     4     4     5    1
     5     5     6   am
     6     6     7    2
     7     6     8    1
     8     8     9    1
     9     9    10   ar
    10    10    11    1
    11    10    12   ar
    12    12    13   ar
    13    13    14    1
    14    13    15   ar
    15    15    16   ar
    16     9    16   ar
    17    16    17    1
    18     8    18    1
    19    18    19    1
    20    19    20    1
    21    20    21   ar
    22    21    22   ar
    23    22    23   ar
    24    23    24   ar
    25    20    24   ar
    26    18    25   am
    27    25    26    2
    28    25    27    1
    29    27    28    3
    30    28    29    1
    31    29    30   ar
    32    30    31   ar
    33    31    32   ar
    34    32    33   ar
    35    33    34   ar
    36    29    34   ar
    37     1    35    1
    38     1    36    1
    39     1    37    1
    40     2    38    1
    41     2    39    1
    42     3    40    1
    43     3    41    1
    44     4    42    1
    45     4    43    1
    46     5    44    1
    47     8    45    1
    48    11    46    1
    49    12    47    1
    50    14    48    1
    51    15    49    1
    52    17    50    1
    53    19    51    1
    54    19    52    1
    55    21    53    1
    56    22    54    1
    57    23    55    1
    58    30    56    1
    59    31    57    1
    60    32    58    1
    61    33    59    1
    62    34    60    1
