REMARK  3 active torsions:
REMARK  status: ('A' for Active; 'I' for Inactive)
REMARK    1  A    between atoms: C_4  and  O_5 
REMARK    2  A    between atoms: C_6  and  N_7 
REMARK       I    between atoms: N_7  and  C_8 
REMARK    3  A    between atoms: C_8  and  C_10 
ROOT
ATOM      1  N   UNL d   1      -2.139  -2.319   0.025  0.00  0.00    -0.321 N 
ATOM      2  C   UNL d   1      -3.529  -2.186   0.002  0.00  0.00     0.256 C 
ATOM      3  O   UNL d   1      -4.232  -1.178  -0.002  0.00  0.00    -0.267 OA
ATOM      4  H   UNL d   1      -1.764  -3.260   0.006  0.00  0.00     0.169 HD
ENDROOT
BRANCH   1   5
ATOM      5  C   UNL d   1      -1.167  -1.254   0.013  0.00  0.00     0.069 A 
ATOM      6  C   UNL d   1      -1.489   0.111   0.005  0.00  0.00     0.092 A 
ATOM      7  C   UNL d   1      -0.517   1.107  -0.002  0.00  0.00     0.046 A 
ATOM      8  C   UNL d   1       0.836   0.790  -0.000  0.00  0.00    -0.053 A 
ATOM      9  C   UNL d   1       1.825   1.922   0.003  0.00  0.00     0.049 C 
ATOM     10  C   UNL d   1       1.216  -0.564   0.001  0.00  0.00    -0.054 A 
ATOM     11  C   UNL d   1       0.212  -1.575   0.007  0.00  0.00     0.039 A 
ATOM     12  C   UNL d   1       2.684  -0.912  -0.004  0.00  0.00     0.049 C 
BRANCH   6  13
ATOM     13  O   UNL d   1      -2.770   0.553   0.002  0.00  0.00    -0.358 OA
ATOM     14  H   UNL d   1      -2.855   1.512  -0.007  0.00  0.00     0.217 HD
ENDBRANCH   6  13
ENDBRANCH   1   5
BRANCH   2  15
ATOM     15  C   UNL d   1      -4.370  -3.394  -0.026  0.00  0.00     0.032 A 
ATOM     16  C   UNL d   1      -4.195  -4.439   0.877  0.00  0.00     0.018 A 
ATOM     17  C   UNL d   1      -5.159  -5.452   0.935  0.00  0.00     0.020 A 
ATOM     18  C   UNL d   1      -6.287  -5.408   0.108  0.00  0.00     0.011 A 
ATOM     19 BR   UNL d   1      -7.577  -6.786   0.201  0.00  0.00    -0.051 Br
ATOM     20  C   UNL d   1      -6.480  -4.353  -0.778  0.00  0.00     0.020 A 
ATOM     21  C   UNL d   1      -5.523  -3.345  -0.839  0.00  0.00     0.018 A 
ENDBRANCH   2  15
TORSDOF 3
