@<TRIPOS>MOLECULE
*****
 44 46 0 0 0
SMALL
GASTEIGER

@<TRIPOS>ATOM
      1 O           1.0195    0.0083   -0.0937 O.2     1  UNL1       -0.2513
      2 C           2.2488   -0.0007   -0.0735 C.2     1  UNL1        0.3160
      3 N           2.9398   -0.6790    0.9039 N.am    1  UNL1       -0.2982
      4 C           2.2368   -1.4437    1.9382 C.3     1  UNL1        0.0147
      5 C           3.1932   -2.1387    2.9115 C.3     1  UNL1       -0.0191
      6 C           2.4473   -2.9099    4.0012 C.3     1  UNL1        0.0296
      7 N           3.3711   -3.5995    4.9246 N.ar    1  UNL1       -0.2957
      8 C           3.4016   -4.9714    5.1640 C.ar    1  UNL1        0.0732
      9 C           4.3645   -5.1917    6.1079 C.ar    1  UNL1        0.1870
     10 N           4.8896   -3.9595    6.4154 N.ar    1  UNL1       -0.2011
     11 C           4.2843   -2.9998    5.7085 C.ar    1  UNL1        0.2463
     12 N           2.9728    0.6750   -1.0327 N.am    1  UNL1       -0.2179
     13 N           4.3690    0.8358   -1.1175 N.am    1  UNL1       -0.2287
     14 C           4.9645    1.6596   -2.1113 C.2     1  UNL1        0.2668
     15 O           4.2688    2.2467   -2.9714 O.2     1  UNL1       -0.2681
     16 C           6.4208    1.6622   -2.0700 C.ar    1  UNL1        0.0764
     17 C           7.0842    0.5311   -1.6819 C.ar    1  UNL1       -0.0345
     18 C           8.4112    0.7534   -1.2788 C.ar    1  UNL1       -0.0037
     19 C           9.4030   -0.0819   -0.6887 C.ar    1  UNL1        0.0238
     20 C           9.6959   -1.0091   -1.6363 C.ar    1  UNL1        0.2738
     21 N           8.7960   -2.2194   -1.6934 N.pl3   1  UNL1        0.0796
     22 O           9.3093   -3.3249   -1.4909 O.2     1  UNL1        0.0414
     23 O           7.5659   -2.0772   -1.7115 O.co2   1  UNL1       -0.5760
     24 C          10.3863   -0.3172   -2.6428 C.ar    1  UNL1        0.0167
     25 C          10.1358    1.1614   -2.8163 C.ar    1  UNL1       -0.0410
     26 C           8.8759    1.5623   -2.3264 C.ar    1  UNL1        0.0205
     27 S           7.6322    2.7803   -2.6030 S.2     1  UNL1       -0.0836
     28 H           3.9409   -0.7122    0.8559 H       1  UNL1        0.1503
     29 H           1.5894   -2.1844    1.4514 H       1  UNL1        0.0463
     30 H           1.5816   -0.7541    2.4855 H       1  UNL1        0.0463
     31 H           3.8491   -1.3933    3.3756 H       1  UNL1        0.0297
     32 H           3.8461   -2.8291    2.3642 H       1  UNL1        0.0297
     33 H           1.7924   -3.6654    3.5511 H       1  UNL1        0.0494
     34 H           1.8203   -2.2423    4.6032 H       1  UNL1        0.0494
     35 H           2.7259   -5.6202    4.6326 H       1  UNL1        0.0871
     36 H           4.7435   -6.0677    6.6054 H       1  UNL1        0.1392
     37 H           5.6304   -3.7912    7.0932 H       1  UNL1        0.4538
     38 H           4.5004   -1.9389    5.7612 H       1  UNL1        0.1600
     39 H           2.4342    1.1799   -1.7386 H       1  UNL1        0.1744
     40 H           4.9421    0.3159   -0.4633 H       1  UNL1        0.1732
     41 H           6.5099   -0.3688   -1.6372 H       1  UNL1        0.0636
     42 H          10.3639    0.4735   -0.4765 H       1  UNL1        0.0691
     43 H          11.4446   -0.6273   -2.6991 H       1  UNL1        0.0686
     44 H          10.8989    1.9224   -2.9994 H       1  UNL1        0.0631
@<TRIPOS>UNITY_ATOM_ATTR
10 1
charge 1
21 1
charge 1
23 1
charge -1
@<TRIPOS>BOND
     1     1     2    2
     2     2     3   am
     3     3     4    1
     4     4     5    1
     5     5     6    1
     6     6     7    1
     7     7     8   ar
     8     8     9   ar
     9     9    10   ar
    10    10    11   ar
    11     7    11   ar
    12     2    12   am
    13    12    13    1
    14    13    14   am
    15    14    15    2
    16    14    16    1
    17    16    17   ar
    18    17    18   ar
    19    18    19   ar
    20    19    20   ar
    21    20    21    1
    22    21    22    2
    23    21    23    1
    24    20    24   ar
    25    24    25   ar
    26    25    26   ar
    27    18    26   ar
    28    26    27   ar
    29    16    27   ar
    30     3    28    1
    31     4    29    1
    32     4    30    1
    33     5    31    1
    34     5    32    1
    35     6    33    1
    36     6    34    1
    37     8    35    1
    38     9    36    1
    39    10    37    1
    40    11    38    1
    41    12    39    1
    42    13    40    1
    43    17    41    1
    44    19    42    1
    45    24    43    1
    46    25    44    1
