REMARK  10 active torsions:
REMARK  status: ('A' for Active; 'I' for Inactive)
REMARK    1  A    between atoms: O_2  and  C_3 
REMARK    2  A    between atoms: C_6  and  C_7 
REMARK    3  A    between atoms: C_7  and  C_8 
REMARK    4  A    between atoms: C_8  and  N_9 
REMARK       I    between atoms: N_9  and  C_10 
REMARK    5  A    between atoms: C_10  and  C_12 
REMARK    6  A    between atoms: C_12  and  N_14 
REMARK    7  A    between atoms: N_14  and  C_15 
REMARK    8  A    between atoms: C_19  and  N_20 
REMARK       I    between atoms: N_20  and  C_21 
REMARK    9  A    between atoms: C_21  and  C_23 
REMARK   10  A    between atoms: C_23  and  O_24 
ROOT
ATOM      1  C   UNL d   1       5.611   9.815  -0.243  0.00  0.00     0.170 C 
ATOM      2  C   UNL d   1       5.614   9.921  -1.765  0.00  0.00     0.042 C 
ENDROOT
BRANCH   1   3
ATOM      3  C   UNL d   1       4.848   8.519   0.115  0.00  0.00     0.239 C 
ATOM      4  N   UNL d   1       5.373   7.357  -0.438  0.00  0.00    -0.359 N 
ATOM      5  H   UNL d   1       6.174   7.392  -1.055  0.00  0.00     0.162 HD
ATOM      6  O   UNL d   1       3.849   8.512   0.837  0.00  0.00    -0.271 OA
BRANCH   4   7
ATOM      7  C   UNL d   1       4.709   6.101  -0.213  0.00  0.00     0.127 C 
BRANCH   7   8
ATOM      8  C   UNL d   1       5.363   4.888  -0.885  0.00  0.00     0.058 C 
BRANCH   8   9
ATOM      9  C   UNL d   1       4.625   3.591  -0.618  0.00  0.00    -0.057 A 
ATOM     10  C   UNL d   1       5.060   2.399  -1.213  0.00  0.00     0.010 A 
ATOM     11  C   UNL d   1       4.307   1.225  -1.078  0.00  0.00     0.037 A 
ATOM     12  C   UNL d   1       3.148   1.208  -0.299  0.00  0.00     0.068 A 
ATOM     13  C   UNL d   1       2.746   2.370   0.344  0.00  0.00     0.037 A 
ATOM     14  C   UNL d   1       3.473   3.545   0.181  0.00  0.00     0.010 A 
BRANCH  12  15
ATOM     15  O   UNL d   1       2.526  -0.000  -0.147  0.00  0.00    -0.356 OA
ATOM     16  C   UNL d   1       1.105   0.058  -0.037  0.00  0.00     0.210 C 
ENDBRANCH  12  15
ENDBRANCH   8   9
ENDBRANCH   7   8
ENDBRANCH   4   7
ENDBRANCH   1   3
BRANCH   1  17
ATOM     17  N   UNL d   1       5.034  10.966   0.499  0.00  0.00    -0.377 N 
ATOM     18  H   UNL d   1       4.185  10.755   1.025  0.00  0.00     0.160 HD
BRANCH  17  19
ATOM     19  C   UNL d   1       5.388  12.293   0.365  0.00  0.00     0.030 A 
ATOM     20  C   UNL d   1       5.453  13.170   1.437  0.00  0.00     0.029 A 
ATOM     21  C   UNL d   1       5.792  14.523   1.230  0.00  0.00     0.004 A 
ATOM     22  C   UNL d   1       6.153  15.001  -0.049  0.00  0.00     0.029 A 
ATOM     23  C   UNL d   1       6.093  14.140  -1.139  0.00  0.00     0.036 A 
ATOM     24  C   UNL d   1       5.668  12.842  -0.879  0.00  0.00     0.058 A 
BRANCH  23  25
ATOM     25  N   UNL d   1       6.385  14.546  -2.479  0.00  0.00    -0.325 N 
ATOM     26  C   UNL d   1       6.355  13.701  -3.594  0.00  0.00     0.245 C 
ATOM     27  O   UNL d   1       6.135  12.483  -3.600  0.00  0.00    -0.271 OA
ATOM     28  H   UNL d   1       6.635  15.518  -2.614  0.00  0.00     0.169 HD
BRANCH  26  29
ATOM     29  C   UNL d   1       6.673  14.327  -4.946  0.00  0.00     0.267 C 
BRANCH  29  30
ATOM     30  O   UNL d   1       6.619  13.347  -5.988  0.00  0.00    -0.392 OA
ATOM     31  H   UNL d   1       6.982  12.521  -5.604  0.00  0.00     0.210 HD
ENDBRANCH  29  30
ENDBRANCH  26  29
ENDBRANCH  23  25
ENDBRANCH  17  19
ENDBRANCH   1  17
TORSDOF 10
