REMARK  7 active torsions:
REMARK  status: ('A' for Active; 'I' for Inactive)
REMARK    1  A    between atoms: C_4  and  S_5 
REMARK    2  A    between atoms: S_5  and  C_6 
REMARK    3  A    between atoms: C_6  and  C_7 
REMARK       I    between atoms: C_7  and  N_9 
REMARK    4  A    between atoms: N_9  and  C_10 
REMARK    5  A    between atoms: C_15  and  C_16 
REMARK       I    between atoms: C_16  and  N_18 
REMARK    6  A    between atoms: N_18  and  C_19 
REMARK    7  A    between atoms: C_26  and  C_27 
REMARK       I    between atoms: C_27  and  N_28 
ROOT
ATOM      1  C   UNL d   1       7.944   4.382  -0.449  0.00  0.00     0.231 C 
ATOM      2  O   UNL d   1       7.446   5.474  -0.665  0.00  0.00    -0.272 OA
ATOM      3  N   UNL d   1       9.320   4.127  -0.123  0.00  0.00    -0.326 N 
ATOM      4  H   UNL d   1       9.775   3.228  -0.272  0.00  0.00     0.169 HD
ENDROOT
BRANCH   3   5
ATOM      5  C   UNL d   1      10.134   5.242   0.092  0.00  0.00     0.050 C 
ATOM      6  C   UNL d   1      11.195   5.436  -0.802  0.00  0.00     0.030 C 
ATOM      7  C   UNL d   1      11.643   6.736  -1.003  0.00  0.00     0.002 C 
ATOM      8  C   UNL d   1      11.301   7.728  -0.088  0.00  0.00     0.001 C 
ATOM      9  C   UNL d   1      10.398   7.460   0.944  0.00  0.00     0.019 C 
ATOM     10  C   UNL d   1       9.731   6.237   0.999  0.00  0.00     0.059 C 
BRANCH  10  11
ATOM     11  C   UNL d   1       8.575   6.112   1.971  0.00  0.00     0.258 C 
ATOM     12  O   UNL d   1       8.188   7.117   2.561  0.00  0.00    -0.267 OA
ATOM     13  N   UNL d   1       8.038   4.847   2.193  0.00  0.00    -0.323 N 
ATOM     14  H   UNL d   1       8.606   4.055   1.936  0.00  0.00     0.169 HD
BRANCH  13  15
ATOM     15  C   UNL d   1       6.806   4.585   2.824  0.00  0.00     0.035 C 
ATOM     16  C   UNL d   1       6.661   3.376   3.499  0.00  0.00     0.031 C 
ATOM     17  C   UNL d   1       5.685   3.288   4.486  0.00  0.00     0.026 C 
ATOM     18  C   UNL d   1       4.641   4.209   4.507  0.00  0.00     0.034 C 
ATOM     19 CL   UNL d   1       3.347   3.997   5.618  0.00  0.00    -0.084 Cl
ATOM     20  C   UNL d   1       4.630   5.275   3.615  0.00  0.00     0.026 C 
ATOM     21  C   UNL d   1       5.755   5.504   2.825  0.00  0.00     0.031 C 
ENDBRANCH  13  15
ENDBRANCH  10  11
ENDBRANCH   3   5
BRANCH   1  22
ATOM     22  C   UNL d   1       7.180   3.133  -0.313  0.00  0.00     0.184 C 
BRANCH  22  23
ATOM     23  S   UNL d   1       5.345   3.007  -0.151  0.00  0.00    -0.100 SA
BRANCH  23  24
ATOM     24  C   UNL d   1       4.693   1.215  -0.029  0.00  0.00     0.110 A 
ATOM     25  N   UNL d   1       3.313   1.246   0.015  0.00  0.00    -0.245 NA
ATOM     26  C   UNL d   1       2.609   0.075   0.047  0.00  0.00     0.038 A 
ATOM     27  C   UNL d   1       1.094   0.135   0.052  0.00  0.00     0.071 C 
ATOM     28  C   UNL d   1       3.241  -1.176   0.049  0.00  0.00    -0.031 A 
ATOM     29  C   UNL d   1       4.649  -1.234   0.039  0.00  0.00    -0.035 A 
ATOM     30  C   UNL d   1       2.445  -2.454   0.045  0.00  0.00     0.051 C 
ATOM     31  C   UNL d   1       5.393  -0.049  -0.003  0.00  0.00     0.073 A 
ATOM     32  C   UNL d   1       5.311  -2.584   0.063  0.00  0.00     0.050 C 
BRANCH  31  33
ATOM     33  C   UNL d   1       6.905  -0.281   0.050  0.00  0.00     0.252 C 
ATOM     34  N   UNL d   1       7.528   0.806   0.465  0.00  0.00    -0.366 N 
ATOM     35  H   UNL d   1       6.805   1.486   0.459  0.00  0.00     0.159 HD
ATOM     36  H   UNL d   1       8.468   0.926   0.117  0.00  0.00     0.159 HD
ATOM     37  O   UNL d   1       7.642  -1.202  -0.154  0.00  0.00    -0.268 OA
ENDBRANCH  31  33
ENDBRANCH  23  24
ENDBRANCH  22  23
ENDBRANCH   1  22
TORSDOF 7
