@<TRIPOS>MOLECULE
*****
 69 72 0 0 0
SMALL
GASTEIGER

@<TRIPOS>ATOM
      1 C           3.0342    9.2088    6.5068 C.3     1  UNL1       -0.0612
      2 C           1.7435    9.6932    5.9185 C.3     1  UNL1       -0.0284
      3 C           1.6829    9.4416    4.4103 C.ar    1  UNL1       -0.0121
      4 C           0.9552   10.2465    3.5226 C.ar    1  UNL1        0.1020
      5 C           0.2648   11.5562    3.7214 C.2     1  UNL1        0.3460
      6 O          -0.2700   12.2309    2.8764 O.2     1  UNL1       -0.2444
      7 O           0.3639   11.9428    5.0372 O.3     1  UNL1       -0.4641
      8 C           0.0248   13.2978    5.3666 C.3     1  UNL1        0.0820
      9 S           0.8489    9.4821    1.9691 S.2     1  UNL1       -0.0617
     10 C           1.8209    8.1279    2.4122 C.ar    1  UNL1        0.1166
     11 N           1.9036    7.0037    1.6055 N.ar    1  UNL1       -0.2211
     12 C           2.3539    5.9430    2.2173 C.ar    1  UNL1        0.1564
     13 C           2.3040    4.5471    1.6541 C.3     1  UNL1        0.0278
     14 N           1.7048    4.4830    0.2682 N.4     1  UNL1        0.2447
     15 C           0.6007    3.4573    0.0238 C.3     1  UNL1       -0.0013
     16 C           0.3288    2.4858    1.1747 C.3     1  UNL1        0.1286
     17 O          -0.4052    1.3630    0.6833 O.3     1  UNL1       -0.3831
     18 C          -0.4527    3.1144    2.3543 C.3     1  UNL1        0.1204
     19 O          -0.0375    4.4276    2.6666 O.3     1  UNL1       -0.4892
     20 C          -0.2887    4.9546    3.8913 C.ar    1  UNL1        0.1206
     21 C          -0.3211    6.3259    3.8676 C.ar    1  UNL1       -0.0199
     22 C          -0.2138    7.0236    5.0594 C.ar    1  UNL1       -0.0583
     23 C          -0.2121    6.4264    6.2935 C.ar    1  UNL1       -0.0615
     24 C          -0.3248    5.0571    6.3223 C.ar    1  UNL1       -0.0583
     25 C          -0.3206    4.3153    5.1227 C.ar    1  UNL1       -0.0199
     26 C           2.8027    4.6578   -0.7724 C.3     1  UNL1       -0.0203
     27 C           4.1365    4.1660   -0.1926 C.3     1  UNL1       -0.0096
     28 C           5.2858    4.2151   -1.1407 C.3     1  UNL1       -0.0480
     29 C           4.9322    3.4594   -2.3964 C.3     1  UNL1       -0.0527
     30 C           3.6619    4.0224   -3.0333 C.3     1  UNL1       -0.0480
     31 C           2.4933    3.9288   -2.0723 C.3     1  UNL1       -0.0096
     32 N           2.8930    5.9182    3.4637 N.ar    1  UNL1       -0.3061
     33 C           2.7072    6.9414    4.3258 C.ar    1  UNL1        0.2602
     34 O           2.7628    6.5765    5.4967 O.2     1  UNL1       -0.2671
     35 C           2.1908    8.2046    3.7488 C.ar    1  UNL1        0.0759
     36 H           3.1655    9.5275    7.5354 H       1  UNL1        0.0233
     37 H           3.8607    9.5224    5.8667 H       1  UNL1        0.0233
     38 H           3.0459    8.1399    6.5864 H       1  UNL1        0.0233
     39 H           1.6902   10.7496    6.1683 H       1  UNL1        0.0311
     40 H           0.8814    9.2504    6.4389 H       1  UNL1        0.0311
     41 H           0.2444   13.4520    6.4316 H       1  UNL1        0.0661
     42 H          -1.0390   13.4862    5.2078 H       1  UNL1        0.0661
     43 H           0.6458   13.9967    4.7987 H       1  UNL1        0.0661
     44 H           1.8755    3.8131    2.3227 H       1  UNL1        0.0897
     45 H           3.2905    4.1079    1.7469 H       1  UNL1        0.0897
     46 H           1.1816    5.3810    0.2260 H       1  UNL1        0.2042
     47 H          -0.3052    4.0011   -0.2743 H       1  UNL1        0.0841
     48 H           0.8421    2.8401   -0.8381 H       1  UNL1        0.0841
     49 H           1.2990    2.0657    1.4774 H       1  UNL1        0.0681
     50 H          -1.3090    1.6474    0.4543 H       1  UNL1        0.2102
     51 H          -0.3774    2.4344    3.2021 H       1  UNL1        0.0725
     52 H          -1.4868    3.2390    2.0448 H       1  UNL1        0.0725
     53 H          -0.2504    6.8433    2.9174 H       1  UNL1        0.0654
     54 H           0.0775    8.0464    5.0483 H       1  UNL1        0.0619
     55 H          -0.0290    7.0401    7.1735 H       1  UNL1        0.0618
     56 H          -0.3379    4.5773    7.2930 H       1  UNL1        0.0619
     57 H          -0.2946    3.2397    5.1975 H       1  UNL1        0.0654
     58 H           2.8634    5.7400   -0.9518 H       1  UNL1        0.0851
     59 H           4.0103    3.1327    0.1717 H       1  UNL1        0.0320
     60 H           4.4703    4.8187    0.6233 H       1  UNL1        0.0320
     61 H           6.1548    3.7808   -0.6343 H       1  UNL1        0.0267
     62 H           5.5039    5.2669   -1.3487 H       1  UNL1        0.0267
     63 H           4.7826    2.4004   -2.1430 H       1  UNL1        0.0265
     64 H           5.7683    3.5277   -3.0906 H       1  UNL1        0.0265
     65 H           3.4196    3.4476   -3.9302 H       1  UNL1        0.0267
     66 H           3.8083    5.0693   -3.3152 H       1  UNL1        0.0267
     67 H           2.3627    2.8561   -1.8928 H       1  UNL1        0.0320
     68 H           1.5748    4.3201   -2.5263 H       1  UNL1        0.0320
     69 H           2.9097    5.0452    3.9863 H       1  UNL1        0.1702
@<TRIPOS>UNITY_ATOM_ATTR
14 1
charge 1
@<TRIPOS>BOND
     1     1     2    1
     2     2     3    1
     3     3     4   ar
     4     4     5    1
     5     5     6    2
     6     5     7    1
     7     7     8    1
     8     4     9   ar
     9     9    10   ar
    10    10    11   ar
    11    11    12   ar
    12    12    13    1
    13    16    18    1
    14    18    19    1
    15    19    20    1
    16    20    21   ar
    17    21    22   ar
    18    22    23   ar
    19    23    24   ar
    20    24    25   ar
    21    20    25   ar
    22    14    26    1
    23    26    27    1
    24    27    28    1
    25    28    29    1
    26    29    30    1
    27    30    31    1
    28    26    31    1
    29    12    32   ar
    30    32    33   ar
    31    33    34    2
    32    33    35   ar
    33     3    35   ar
    34    10    35   ar
    35    16    17    1
    36    16    15    1
    37    14    15    1
    38    14    13    1
    39     1    36    1
    40     1    37    1
    41     1    38    1
    42     2    39    1
    43     2    40    1
    44     8    41    1
    45     8    42    1
    46     8    43    1
    47    13    44    1
    48    13    45    1
    49    14    46    1
    50    15    47    1
    51    15    48    1
    52    16    49    1
    53    17    50    1
    54    18    51    1
    55    18    52    1
    56    21    53    1
    57    22    54    1
    58    23    55    1
    59    24    56    1
    60    25    57    1
    61    26    58    1
    62    27    59    1
    63    27    60    1
    64    28    61    1
    65    28    62    1
    66    29    63    1
    67    29    64    1
    68    30    65    1
    69    30    66    1
    70    31    67    1
    71    31    68    1
    72    32    69    1
