@<TRIPOS>MOLECULE
*****
 39 41 0 0 0
SMALL
GASTEIGER

@<TRIPOS>ATOM
      1 C           0.9696   -0.0167    0.0834 C.3     1  UNL1        0.0125
      2 C           2.4906   -0.0291    0.0611 C.2     1  UNL1        0.2141
      3 O           3.0625   -0.7698   -0.7417 O.2     1  UNL1       -0.2758
      4 N           3.1730    0.7725    0.9820 N.am    1  UNL1       -0.2857
      5 C           4.5969    0.7971    1.0250 C.ar    1  UNL1        0.0354
      6 C           5.3231    0.8020    2.1965 C.ar    1  UNL1       -0.0403
      7 C           6.6971    1.0472    2.1487 C.ar    1  UNL1       -0.0580
      8 C           7.3916    1.0527    0.9474 C.ar    1  UNL1       -0.0362
      9 C           6.6885    1.0247   -0.2389 C.ar    1  UNL1        0.0656
     10 N           7.3727    1.1882   -1.4534 N.2     1  UNL1       -0.2548
     11 C           6.7202    1.1969   -2.5701 C.2     1  UNL1        0.0394
     12 C           7.3985    1.3558   -3.8660 C.ar    1  UNL1        0.0422
     13 C           6.8338    2.1983   -4.8356 C.ar    1  UNL1        0.1260
     14 O           5.8423    3.1265   -4.6220 O.3     1  UNL1       -0.5061
     15 C           7.3793    2.1348   -6.1187 C.ar    1  UNL1       -0.0189
     16 C           8.5621    1.4782   -6.3870 C.ar    1  UNL1       -0.0505
     17 C           9.0957    0.6694   -5.4342 C.ar    1  UNL1       -0.0170
     18 C          10.1416   -0.0810   -5.8500 C.ar    1  UNL1       -0.0540
     19 C          10.6865   -0.7648   -4.8226 C.ar    1  UNL1       -0.0612
     20 C          11.2479   -1.4141   -3.8997 C.ar    1  UNL1       -0.0611
     21 C           9.7277   -0.4041   -3.3859 C.ar    1  UNL1       -0.0533
     22 C           8.6411    0.5599   -4.1359 C.ar    1  UNL1       -0.0058
     23 C           5.3078    0.8776   -0.1578 C.ar    1  UNL1       -0.0151
     24 H           0.5810   -0.7119   -0.6815 H       1  UNL1        0.0323
     25 H           0.5787    0.9731   -0.1505 H       1  UNL1        0.0323
     26 H           0.5799   -0.3472    1.0469 H       1  UNL1        0.0323
     27 H           2.6885    1.3593    1.6553 H       1  UNL1        0.1548
     28 H           4.8601    0.5546    3.1406 H       1  UNL1        0.0636
     29 H           7.2498    1.2796    3.0440 H       1  UNL1        0.0619
     30 H           8.4742    1.0695    0.9627 H       1  UNL1        0.0639
     31 H           5.6245    1.0786   -2.6121 H       1  UNL1        0.0837
     32 H           5.5228    3.1922   -3.7015 H       1  UNL1        0.2922
     33 H           6.8908    2.5573   -6.9789 H       1  UNL1        0.0654
     34 H           9.0700    1.5840   -7.3389 H       1  UNL1        0.0625
     35 H          10.7207   -0.0984   -6.7177 H       1  UNL1        0.0624
     36 H          10.6137   -1.5697   -3.8303 H       1  UNL1        0.0618
     37 H          12.1278   -1.9514   -4.8520 H       1  UNL1        0.0618
     38 H           9.1340   -0.3374   -2.3233 H       1  UNL1        0.0624
     39 H           4.7393    0.8090   -1.0593 H       1  UNL1        0.0657
@<TRIPOS>BOND
     1     1     2    1
     2     2     3    2
     3     2     4   am
     4     4     5    1
     5     5     6   ar
     6     6     7   ar
     7     7     8   ar
     8     8     9   ar
     9     9    10    1
    10    10    11    2
    11    11    12    1
    12    12    13   ar
    13    13    14    1
    14    13    15   ar
    15    15    16   ar
    16    16    17   ar
    17    17    18   ar
    18    18    19   ar
    19    19    20   ar
    20    20    21   ar
    21    21    22   ar
    22    12    22   ar
    23    17    22   ar
    24     9    23   ar
    25     5    23   ar
    26     1    24    1
    27     1    25    1
    28     1    26    1
    29     4    27    1
    30     6    28    1
    31     7    29    1
    32     8    30    1
    33    11    31    1
    34    14    32    1
    35    15    33    1
    36    16    34    1
    37    18    35    1
    38    19    36    1
    39    20    37    1
    40    21    38    1
    41    23    39    1
