REMARK  10 active torsions:
REMARK  status: ('A' for Active; 'I' for Inactive)
REMARK    1  A    between atoms: C_2  and  C_4 
REMARK    2  A    between atoms: C_9  and  O_10 
REMARK    3  A    between atoms: O_10  and  C_11 
REMARK    4  A    between atoms: C_11  and  C_12 
REMARK       I    between atoms: C_12  and  N_14 
REMARK    5  A    between atoms: N_14  and  N_15 
REMARK    6  A    between atoms: N_15  and  C_16 
REMARK    7  A    between atoms: C_16  and  N_18 
REMARK       I    between atoms: N_18  and  C_19 
REMARK    8  A    between atoms: C_19  and  C_21 
REMARK    9  A    between atoms: C_22  and  C_23 
REMARK   10  A    between atoms: C_26  and  N_27 
ROOT
ATOM      1  N   UNL d   1       6.235   4.142   2.245  0.00  0.00    -0.273 N 
ATOM      2  H   UNL d   1       7.016   3.851   2.828  0.00  0.00     0.189 HD
ENDROOT
BRANCH   1   3
ATOM      3  N   UNL d   1       5.536   3.024   1.652  0.00  0.00    -0.266 N 
ATOM      4  C   UNL d   1       5.999   1.723   1.944  0.00  0.00     0.260 C 
ATOM      5  O   UNL d   1       6.969   1.542   2.668  0.00  0.00    -0.269 OA
ATOM      6  H   UNL d   1       4.672   3.252   1.150  0.00  0.00     0.190 HD
BRANCH   4   7
ATOM      7  C   UNL d   1       5.115   0.566   1.383  0.00  0.00     0.280 C 
BRANCH   7   8
ATOM      8  O   UNL d   1       5.183  -0.830   1.498  0.00  0.00    -0.341 OA
BRANCH   8   9
ATOM      9  C   UNL d   1       4.209  -1.657   0.947  0.00  0.00     0.076 C 
ATOM     10  C   UNL d   1       4.566  -3.002   1.217  0.00  0.00     0.037 C 
ATOM     11  C   UNL d   1       3.848  -4.098   0.730  0.00  0.00     0.003 C 
ATOM     12  C   UNL d   1       2.749  -3.884  -0.075  0.00  0.00     0.001 C 
ATOM     13  C   UNL d   1       2.382  -2.574  -0.377  0.00  0.00     0.010 C 
ATOM     14  C   UNL d   1       3.019  -1.425   0.195  0.00  0.00    -0.021 C 
BRANCH  14  15
ATOM     15  C   UNL d   1       2.284  -0.100  -0.102  0.00  0.00     0.013 C 
ATOM     16  C   UNL d   1       0.752  -0.189  -0.155  0.00  0.00     0.015 C 
ATOM     17  C   UNL d   1       2.443   0.984   0.940  0.00  0.00     0.015 C 
ENDBRANCH  14  15
ENDBRANCH   8   9
ENDBRANCH   7   8
ENDBRANCH   4   7
ENDBRANCH   1   3
BRANCH   1  18
ATOM     18  C   UNL d   1       5.863   5.471   1.979  0.00  0.00     0.193 C 
ATOM     19  S   UNL d   1       4.510   5.793   1.029  0.00  0.00    -0.039 SA
BRANCH  18  20
ATOM     20  N   UNL d   1       6.715   6.445   2.570  0.00  0.00    -0.299 N 
ATOM     21  C   UNL d   1       6.584   7.846   2.463  0.00  0.00     0.247 C 
ATOM     22  O   UNL d   1       5.720   8.415   1.816  0.00  0.00    -0.268 OA
ATOM     23  H   UNL d   1       7.487   6.095   3.115  0.00  0.00     0.171 HD
BRANCH  21  24
ATOM     24  C   UNL d   1       7.597   8.705   3.183  0.00  0.00     0.075 C 
ATOM     25  C   UNL d   1       7.475  10.053   3.101  0.00  0.00     0.017 C 
BRANCH  25  26
ATOM     26  C   UNL d   1       8.429  11.049   3.638  0.00  0.00    -0.036 A 
ATOM     27  C   UNL d   1       8.004  12.280   4.174  0.00  0.00     0.014 A 
ATOM     28  C   UNL d   1       8.936  13.263   4.559  0.00  0.00     0.037 A 
ATOM     29  C   UNL d   1      10.306  12.989   4.461  0.00  0.00     0.102 A 
ATOM     30  C   UNL d   1      10.741  11.779   3.913  0.00  0.00     0.037 A 
ATOM     31  C   UNL d   1       9.804  10.828   3.496  0.00  0.00     0.014 A 
BRANCH  29  32
ATOM     32  N   UNL d   1      11.295  13.944   4.983  0.00  0.00    -0.116 N 
ATOM     33  O   UNL d   1      10.878  14.997   5.480  0.00  0.00    -0.532 OA
ATOM     34  O   UNL d   1      12.493  13.622   4.917  0.00  0.00    -0.532 OA
ENDBRANCH  29  32
ENDBRANCH  25  26
ENDBRANCH  21  24
ENDBRANCH  18  20
ENDBRANCH   1  18
TORSDOF 10
