@<TRIPOS>MOLECULE
*****
 32 33 0 0 0
SMALL
GASTEIGER

@<TRIPOS>ATOM
      1 C           2.4954   -0.0093   -0.0051 C.3     1  UNL1       -0.0397
      2 C           0.9970   -0.0071    0.0157 C.ar    1  UNL1       -0.0487
      3 C           0.2662   -1.1956    0.0260 C.ar    1  UNL1       -0.0587
      4 C          -1.1259   -1.1518    0.0126 C.ar    1  UNL1       -0.0597
      5 C          -1.7909    0.0819   -0.0440 C.ar    1  UNL1       -0.0394
      6 C          -1.0767    1.2950   -0.0720 C.ar    1  UNL1        0.0447
      7 N          -1.7707    2.5157   -0.3441 N.pl3   1  UNL1       -0.2642
      8 N          -1.0935    3.7089    0.1155 N.am    1  UNL1       -0.2324
      9 C          -1.8182    4.8995    0.0831 C.2     1  UNL1        0.2636
     10 O          -1.4152    5.8508   -0.5941 O.2     1  UNL1       -0.2685
     11 C          -3.0077    5.0710    0.9823 C.ar    1  UNL1        0.0795
     12 C          -3.6981    6.3011    0.9676 C.ar    1  UNL1       -0.0460
     13 C          -4.7689    6.5290    1.8429 C.ar    1  UNL1       -0.0608
     14 C          -5.1686    5.5322    2.7306 C.ar    1  UNL1       -0.0583
     15 C          -4.4959    4.3158    2.7584 C.ar    1  UNL1       -0.0194
     16 C          -3.4157    4.0984    1.9078 C.ar    1  UNL1        0.1290
     17 O          -2.7586    2.9096    2.0209 O.3     1  UNL1       -0.5060
     18 C           0.3197    1.2221   -0.0250 C.ar    1  UNL1       -0.0365
     19 H           2.8978   -1.0264    0.0053 H       1  UNL1        0.0278
     20 H           2.8836    0.5224    0.8691 H       1  UNL1        0.0278
     21 H           2.8518    0.4859   -0.9147 H       1  UNL1        0.0278
     22 H           0.7756   -2.1568    0.0244 H       1  UNL1        0.0620
     23 H          -1.6902   -2.0819    0.0103 H       1  UNL1        0.0618
     24 H          -2.8774    0.0769   -0.0879 H       1  UNL1        0.0636
     25 H          -2.7040    2.4566    0.0732 H       1  UNL1        0.1700
     26 H          -0.2003    3.8197   -0.3497 H       1  UNL1        0.1730
     27 H          -3.3934    7.1041    0.2953 H       1  UNL1        0.0626
     28 H          -5.2858    7.4869    1.8429 H       1  UNL1        0.0618
     29 H          -5.9948    5.7031    3.4155 H       1  UNL1        0.0619
     30 H          -4.8041    3.5471    3.4591 H       1  UNL1        0.0654
     31 H          -3.1638    2.3236    2.6756 H       1  UNL1        0.2922
     32 H           0.9164    2.1267   -0.0457 H       1  UNL1        0.0639
@<TRIPOS>BOND
     1     1     2    1
     2     2     3   ar
     3     3     4   ar
     4     4     5   ar
     5     5     6   ar
     6     6     7    1
     7     7     8    1
     8     8     9   am
     9     9    10    2
    10     9    11    1
    11    11    12   ar
    12    12    13   ar
    13    13    14   ar
    14    14    15   ar
    15    15    16   ar
    16    11    16   ar
    17    16    17    1
    18     6    18   ar
    19     2    18   ar
    20     1    19    1
    21     1    20    1
    22     1    21    1
    23     3    22    1
    24     4    23    1
    25     5    24    1
    26     7    25    1
    27     8    26    1
    28    12    27    1
    29    13    28    1
    30    14    29    1
    31    15    30    1
    32    17    31    1
    33    18    32    1
