REMARK  7 active torsions:
REMARK  status: ('A' for Active; 'I' for Inactive)
REMARK    1  A    between atoms: C_2  and  C_3 
REMARK    2  A    between atoms: C_3  and  N_4 
REMARK       I    between atoms: N_4  and  C_5 
REMARK    3  A    between atoms: C_5  and  C_7 
REMARK    4  A    between atoms: C_11  and  N_12 
REMARK       I    between atoms: N_12  and  C_13 
REMARK    5  A    between atoms: C_13  and  C_15 
REMARK    6  A    between atoms: C_20  and  N_21 
REMARK       I    between atoms: N_21  and  C_22 
REMARK    7  A    between atoms: C_22  and  C_24 
ROOT
ATOM      1  N   UNL d   1       9.274   1.437   2.351  0.00  0.00    -0.323 N 
ATOM      2  C   UNL d   1       8.627   2.555   1.820  0.00  0.00     0.258 C 
ATOM      3  O   UNL d   1       7.418   2.706   1.656  0.00  0.00    -0.267 OA
ATOM      4  H   UNL d   1      10.276   1.482   2.483  0.00  0.00     0.169 HD
ENDROOT
BRANCH   2   5
ATOM      5  C   UNL d   1       9.450   3.690   1.351  0.00  0.00     0.059 A 
ATOM      6  C   UNL d   1       8.919   4.957   1.676  0.00  0.00     0.019 A 
ATOM      7  C   UNL d   1       9.493   6.122   1.186  0.00  0.00     0.001 A 
ATOM      8  C   UNL d   1      10.650   6.034   0.423  0.00  0.00     0.002 A 
ATOM      9  C   UNL d   1      11.192   4.778   0.093  0.00  0.00     0.030 A 
ATOM     10  C   UNL d   1      10.584   3.582   0.522  0.00  0.00     0.050 A 
BRANCH  10  11
ATOM     11  N   UNL d   1      11.171   2.351   0.102  0.00  0.00    -0.322 N 
ATOM     12  C   UNL d   1      10.441   1.192  -0.141  0.00  0.00     0.256 C 
ATOM     13  O   UNL d   1       9.247   1.191  -0.387  0.00  0.00    -0.267 OA
ATOM     14  H   UNL d   1      12.065   2.394  -0.368  0.00  0.00     0.169 HD
BRANCH  12  15
ATOM     15  C   UNL d   1      11.189  -0.070  -0.108  0.00  0.00     0.039 C 
ATOM     16  C   UNL d   1      12.557  -0.345   0.221  0.00  0.00     0.024 C 
ATOM     17  C   UNL d   1      12.896  -1.661  -0.030  0.00  0.00     0.050 C 
ATOM     18  S   UNL d   1      11.542  -2.609  -0.462  0.00  0.00    -0.113 SA
ATOM     19  C   UNL d   1      10.513  -1.260  -0.349  0.00  0.00     0.066 C 
ENDBRANCH  12  15
ENDBRANCH  10  11
ENDBRANCH   2   5
BRANCH   1  20
ATOM     20  C   UNL d   1       8.665   0.154   2.450  0.00  0.00     0.035 A 
ATOM     21  C   UNL d   1       9.427  -0.969   2.800  0.00  0.00     0.029 A 
ATOM     22  C   UNL d   1       8.800  -2.209   2.997  0.00  0.00     0.003 A 
ATOM     23  C   UNL d   1       7.421  -2.343   2.802  0.00  0.00     0.017 A 
ATOM     24  C   UNL d   1       6.675  -1.244   2.379  0.00  0.00     0.034 A 
ATOM     25  C   UNL d   1       7.309  -0.026   2.173  0.00  0.00     0.046 A 
BRANCH  24  26
ATOM     26  C   UNL d   1       5.191  -1.280   2.361  0.00  0.00     0.251 C 
ATOM     27  N   UNL d   1       4.544  -0.646   1.313  0.00  0.00    -0.357 N 
ATOM     28  H   UNL d   1       5.079  -0.192   0.581  0.00  0.00     0.162 HD
ATOM     29  O   UNL d   1       4.604  -1.831   3.287  0.00  0.00    -0.268 OA
BRANCH  27  30
ATOM     30  C   UNL d   1       3.094  -0.588   1.278  0.00  0.00     0.122 C 
BRANCH  30  31
ATOM     31  C   UNL d   1       2.554   0.091   0.023  0.00  0.00     0.015 C 
ATOM     32  C   UNL d   1       1.031   0.098   0.012  0.00  0.00     0.006 C 
ENDBRANCH  30  31
ENDBRANCH  27  30
ENDBRANCH  24  26
ENDBRANCH   1  20
TORSDOF 7
