@<TRIPOS>MOLECULE
*****
 53 54 0 0 0
SMALL
GASTEIGER

@<TRIPOS>ATOM
      1 C           1.1520    0.0155    0.0253 C.3     1  UNL1       -0.0135
      2 S           2.9724   -0.0681   -0.0406 S.3     1  UNL1       -0.1286
      3 C           3.4671    1.6516   -0.0772 C.ar    1  UNL1        0.0076
      4 C           4.8241    1.9713    0.0601 C.ar    1  UNL1       -0.0480
      5 C           5.2507    3.3128    0.1211 C.ar    1  UNL1       -0.0560
      6 C           4.3403    4.3731   -0.0452 C.ar    1  UNL1       -0.0302
      7 C           4.8482    5.8057   -0.1235 C.3     1  UNL1        0.0373
      8 N           3.8343    6.8196   -0.3719 N.am    1  UNL1       -0.3035
      9 C           4.1014    8.1709   -0.5152 C.2     1  UNL1        0.2996
     10 O           5.1961    8.6947   -0.4567 O.2     1  UNL1       -0.2652
     11 C           2.8183    9.0195   -0.7699 C.2     1  UNL1        0.3031
     12 O           1.7412    8.4309   -0.7940 O.2     1  UNL1       -0.2648
     13 N           3.0281   10.3780   -0.9997 N.am    1  UNL1       -0.2777
     14 C           1.9776   11.3147   -1.1693 C.ar    1  UNL1        0.0341
     15 C           2.0989   12.4110   -2.0190 C.ar    1  UNL1       -0.0397
     16 C           1.0406   13.3462   -2.1282 C.ar    1  UNL1       -0.0476
     17 C          -0.1657   13.2160   -1.3955 C.ar    1  UNL1        0.0397
     18 C          -1.2580   14.2389   -1.6693 C.2     1  UNL1        0.2445
     19 O          -1.0221   15.1884   -2.4138 O.2     1  UNL1       -0.2702
     20 N          -2.5126   14.0419   -1.1130 N.am    1  UNL1       -0.3090
     21 C          -3.6623   14.9198   -1.3094 C.3     1  UNL1        0.0178
     22 C          -4.1247   14.8296   -2.7564 C.3     1  UNL1       -0.0469
     23 C          -4.8095   14.4924   -0.3809 C.3     1  UNL1       -0.0469
     24 C          -0.2368   12.1608   -0.4693 C.ar    1  UNL1       -0.0366
     25 C          -1.3168   11.9443    0.5481 C.3     1  UNL1       -0.0389
     26 C           0.8102   11.2057   -0.4153 C.ar    1  UNL1       -0.0368
     27 C           2.9903    4.0335   -0.1842 C.ar    1  UNL1       -0.0560
     28 C           2.5638    2.7015   -0.2064 C.ar    1  UNL1       -0.0480
     29 H           0.7510   -0.9982    0.1111 H       1  UNL1        0.0344
     30 H           0.7520    0.4556   -0.8929 H       1  UNL1        0.0344
     31 H           0.8042    0.5886    0.8912 H       1  UNL1        0.0344
     32 H           5.5687    1.1776    0.1186 H       1  UNL1        0.0629
     33 H           6.3075    3.5127    0.2974 H       1  UNL1        0.0621
     34 H           5.5721    5.8710   -0.9450 H       1  UNL1        0.0512
     35 H           5.3671    6.0699    0.8049 H       1  UNL1        0.0512
     36 H           2.8620    6.5677   -0.4973 H       1  UNL1        0.1495
     37 H           3.9903   10.6886   -1.1036 H       1  UNL1        0.1553
     38 H           2.9693   12.5278   -2.6618 H       1  UNL1        0.0636
     39 H           1.1723   14.1989   -2.7978 H       1  UNL1        0.0626
     40 H          -2.7662   13.1093   -0.8406 H       1  UNL1        0.1493
     41 H          -3.3600   15.9460   -1.0666 H       1  UNL1        0.0493
     42 H          -4.4002   13.7975   -3.0017 H       1  UNL1        0.0247
     43 H          -3.3277   15.1243   -3.4442 H       1  UNL1        0.0247
     44 H          -4.9873   15.4757   -2.9376 H       1  UNL1        0.0247
     45 H          -5.1184   13.4594   -0.5863 H       1  UNL1        0.0247
     46 H          -5.6890   15.1325   -0.5131 H       1  UNL1        0.0247
     47 H          -4.5142   14.5338    0.6735 H       1  UNL1        0.0247
     48 H          -1.9339   12.8170    0.7388 H       1  UNL1        0.0278
     49 H          -0.8673   11.7575    1.5270 H       1  UNL1        0.0278
     50 H          -1.9385   11.0938    0.2516 H       1  UNL1        0.0278
     51 H           0.7194   10.3909    0.3011 H       1  UNL1        0.0639
     52 H           2.2146    4.7833   -0.2797 H       1  UNL1        0.0621
     53 H           1.5024    2.5274   -0.3385 H       1  UNL1        0.0629
@<TRIPOS>BOND
     1     1     2    1
     2     2     3    1
     3     3     4   ar
     4     4     5   ar
     5     5     6   ar
     6     6     7    1
     7     7     8    1
     8     8     9   am
     9     9    10    2
    10     9    11    1
    11    11    12    2
    12    11    13   am
    13    13    14    1
    14    14    15   ar
    15    15    16   ar
    16    16    17   ar
    17    17    18    1
    18    18    19    2
    19    18    20   am
    20    20    21    1
    21    21    22    1
    22    21    23    1
    23    17    24   ar
    24    24    25    1
    25    24    26   ar
    26    14    26   ar
    27     6    27   ar
    28    27    28   ar
    29     3    28   ar
    30     1    29    1
    31     1    30    1
    32     1    31    1
    33     4    32    1
    34     5    33    1
    35     7    34    1
    36     7    35    1
    37     8    36    1
    38    13    37    1
    39    15    38    1
    40    16    39    1
    41    20    40    1
    42    21    41    1
    43    22    42    1
    44    22    43    1
    45    22    44    1
    46    23    45    1
    47    23    46    1
    48    23    47    1
    49    25    48    1
    50    25    49    1
    51    25    50    1
    52    26    51    1
    53    27    52    1
    54    28    53    1
