REMARK  7 active torsions:
REMARK  status: ('A' for Active; 'I' for Inactive)
REMARK    1  A    between atoms: C_2  and  C_3 
REMARK       I    between atoms: C_2  and  N_14 
REMARK    2  A    between atoms: C_3  and  C_4 
REMARK    3  A    between atoms: C_4  and  C_5 
REMARK    4  A    between atoms: C_5  and  N_6 
REMARK       I    between atoms: N_6  and  C_7 
REMARK    5  A    between atoms: C_7  and  C_9 
REMARK    6  A    between atoms: N_14  and  N_15 
REMARK    7  A    between atoms: N_15  and  C_16 
ROOT
ATOM      1  O   UNL d   1       0.982  -0.117  -0.099  0.00  0.00    -0.272 OA
ATOM      2  C   UNL d   1       2.211  -0.033  -0.076  0.00  0.00     0.232 C 
ATOM      3  N   UNL d   1       2.968  -0.867  -0.881  0.00  0.00    -0.287 N 
ATOM      4  H   UNL d   1       2.435  -1.635  -1.285  0.00  0.00     0.184 HD
ENDROOT
BRANCH   2   5
ATOM      5  C   UNL d   1       2.934   1.001   0.780  0.00  0.00     0.106 C 
BRANCH   5   6
ATOM      6  C   UNL d   1       1.959   1.929   1.528  0.00  0.00     0.029 C 
BRANCH   6   7
ATOM      7  C   UNL d   1       2.691   2.979   2.368  0.00  0.00     0.123 C 
BRANCH   7   8
ATOM      8  N   UNL d   1       1.791   3.852   3.106  0.00  0.00    -0.357 N 
ATOM      9  C   UNL d   1       2.277   4.902   3.862  0.00  0.00     0.252 C 
ATOM     10  O   UNL d   1       3.477   5.159   3.958  0.00  0.00    -0.268 OA
ATOM     11  H   UNL d   1       0.791   3.768   2.976  0.00  0.00     0.162 HD
BRANCH   9  12
ATOM     12  C   UNL d   1       1.255   5.710   4.531  0.00  0.00     0.038 A 
ATOM     13  C   UNL d   1       0.104   5.219   5.237  0.00  0.00     0.024 A 
ATOM     14  C   UNL d   1      -0.667   6.225   5.778  0.00  0.00     0.050 A 
ATOM     15  S   UNL d   1      -0.017   7.771   5.451  0.00  0.00    -0.113 SA
ATOM     16  C   UNL d   1       1.314   7.092   4.614  0.00  0.00     0.066 A 
ENDBRANCH   9  12
ENDBRANCH   7   8
ENDBRANCH   6   7
ENDBRANCH   5   6
ENDBRANCH   2   5
BRANCH   3  17
ATOM     17  N   UNL d   1       4.315  -1.155  -0.607  0.00  0.00    -0.203 NA
ATOM     18  H   UNL d   1       4.884  -0.355  -0.321  0.00  0.00     0.153 HD
BRANCH  17  19
ATOM     19  C   UNL d   1       5.001  -1.951  -1.568  0.00  0.00     0.029 A 
ATOM     20  C   UNL d   1       4.562  -2.179  -2.882  0.00  0.00     0.025 A 
ATOM     21  C   UNL d   1       5.282  -3.016  -3.753  0.00  0.00     0.003 A 
ATOM     22  C   UNL d   1       6.446  -3.647  -3.321  0.00  0.00     0.024 A 
ATOM     23  C   UNL d   1       6.893  -3.427  -2.023  0.00  0.00     0.035 A 
ATOM     24 CL   UNL d   1       8.310  -4.232  -1.467  0.00  0.00    -0.084 Cl
ATOM     25  C   UNL d   1       6.194  -2.574  -1.163  0.00  0.00     0.048 A 
ENDBRANCH  17  19
ENDBRANCH   3  17
TORSDOF 7
