REMARK  6 active torsions:
REMARK  status: ('A' for Active; 'I' for Inactive)
REMARK    1  A    between atoms: C_5  and  N_6 
REMARK       I    between atoms: N_6  and  C_7 
REMARK       I    between atoms: C_7  and  N_9 
REMARK    2  A    between atoms: N_9  and  C_10 
REMARK    3  A    between atoms: C_10  and  C_11 
REMARK    4  A    between atoms: C_22  and  N_23 
REMARK       I    between atoms: N_23  and  C_24 
REMARK       I    between atoms: C_24  and  N_26 
REMARK    5  A    between atoms: N_26  and  C_27 
REMARK    6  A    between atoms: C_27  and  C_28 
ROOT
ATOM      1  C   UNL d   1       2.434  -0.464  -0.007  0.00  0.00     0.050 C 
ATOM      2  C   UNL d   1       0.984  -0.157  -0.001  0.00  0.00    -0.035 A 
ATOM      3  C   UNL d   1       0.136  -1.270   0.003  0.00  0.00     0.011 A 
ATOM      4  C   UNL d   1      -1.247  -1.124  -0.005  0.00  0.00     0.030 A 
ATOM      5  C   UNL d   1      -1.798   0.163  -0.013  0.00  0.00     0.038 A 
ATOM      6  C   UNL d   1      -0.923   1.273  -0.001  0.00  0.00     0.059 A 
ATOM      7  C   UNL d   1       0.477   1.147  -0.001  0.00  0.00     0.044 A 
ENDROOT
BRANCH   5   8
ATOM      8  N   UNL d   1      -3.214   0.320  -0.037  0.00  0.00    -0.314 N 
ATOM      9  C   UNL d   1      -3.879   1.545  -0.022  0.00  0.00     0.299 C 
ATOM     10  O   UNL d   1      -3.384   2.662  -0.004  0.00  0.00    -0.254 OA
ATOM     11  N   UNL d   1      -5.234   1.402  -0.064  0.00  0.00    -0.238 NA
ATOM     12  H   UNL d   1      -5.472   0.732  -0.770  0.00  0.00     0.132 HD
ATOM     13  H   UNL d   1      -3.766  -0.531  -0.015  0.00  0.00     0.170 HD
BRANCH  11  14
ATOM     14  C   UNL d   1      -6.153   2.539  -0.062  0.00  0.00     0.157 C 
BRANCH  14  15
ATOM     15  C   UNL d   1      -7.641   2.174  -0.083  0.00  0.00     0.058 A 
ATOM     16  N   UNL d   1      -8.476   3.259  -0.147  0.00  0.00    -0.263 NA
ATOM     17  C   UNL d   1      -9.806   3.038  -0.199  0.00  0.00     0.118 A 
ATOM     18  C   UNL d   1     -10.370   1.777  -0.225  0.00  0.00     0.031 A 
ATOM     19  C   UNL d   1      -9.534   0.657  -0.189  0.00  0.00    -0.023 A 
ATOM     20  C   UNL d   1     -10.083  -0.644  -0.235  0.00  0.00     0.012 A 
ATOM     21  C   UNL d   1      -8.137   0.826  -0.085  0.00  0.00     0.000 A 
ATOM     22  C   UNL d   1      -9.280  -1.787  -0.230  0.00  0.00     0.001 A 
ATOM     23  C   UNL d   1      -7.919  -1.654  -0.118  0.00  0.00     0.001 A 
ATOM     24  C   UNL d   1      -7.386  -0.384   0.021  0.00  0.00     0.014 A 
ENDBRANCH  14  15
ENDBRANCH  11  14
ENDBRANCH   5   8
BRANCH   7  25
ATOM     25  N   UNL d   1       1.273   2.344  -0.016  0.00  0.00    -0.313 N 
ATOM     26  C   UNL d   1       2.662   2.432  -0.006  0.00  0.00     0.299 C 
ATOM     27  O   UNL d   1       3.525   1.603   0.036  0.00  0.00    -0.254 OA
ATOM     28  N   UNL d   1       3.156   3.683  -0.087  0.00  0.00    -0.238 NA
ATOM     29  H   UNL d   1       2.740   4.212  -0.832  0.00  0.00     0.132 HD
ATOM     30  H   UNL d   1       0.750   3.212   0.025  0.00  0.00     0.170 HD
BRANCH  28  31
ATOM     31  C   UNL d   1       4.610   3.828   0.019  0.00  0.00     0.157 C 
BRANCH  31  32
ATOM     32  C   UNL d   1       5.077   5.258   0.062  0.00  0.00     0.058 A 
ATOM     33  N   UNL d   1       6.428   5.414  -0.065  0.00  0.00    -0.263 NA
ATOM     34  C   UNL d   1       6.902   6.671  -0.096  0.00  0.00     0.118 A 
ATOM     35  C   UNL d   1       6.087   7.787  -0.051  0.00  0.00     0.031 A 
ATOM     36  C   UNL d   1       4.696   7.628   0.051  0.00  0.00    -0.023 A 
ATOM     37  C   UNL d   1       3.820   8.732   0.066  0.00  0.00     0.012 C 
ATOM     38  C   UNL d   1       4.158   6.343   0.163  0.00  0.00     0.000 A 
ATOM     39  C   UNL d   1       2.429   8.581   0.124  0.00  0.00     0.001 C 
ATOM     40  C   UNL d   1       1.882   7.330   0.251  0.00  0.00     0.001 C 
ATOM     41  C   UNL d   1       2.746   6.263   0.368  0.00  0.00     0.014 C 
ENDBRANCH  31  32
ENDBRANCH  28  31
ENDBRANCH   7  25
TORSDOF 6
