@<TRIPOS>MOLECULE
*****
 44 45 0 0 0
SMALL
GASTEIGER

@<TRIPOS>ATOM
      1 C           1.1078    0.0466    0.0906 C.3     1  UNL1       -0.0442
      2 C           2.6500    0.0424    0.0632 C.3     1  UNL1        0.0265
      3 C           3.1094   -1.4135   -0.1274 C.3     1  UNL1       -0.0442
      4 C           3.0986    0.9041   -1.1283 C.3     1  UNL1       -0.0442
      5 N           3.1927    0.5910    1.3215 N.am    1  UNL1       -0.3066
      6 C           4.5529    0.7443    1.5390 C.2     1  UNL1        0.2445
      7 O           5.4263    0.4589    0.7175 O.2     1  UNL1       -0.2702
      8 C           5.0043    1.2383    2.8579 C.ar    1  UNL1        0.0368
      9 C           6.1791    2.0005    2.9625 C.ar    1  UNL1       -0.0479
     10 C           6.7574    2.2608    4.2214 C.ar    1  UNL1       -0.0398
     11 C           6.1299    1.8132    5.3921 C.ar    1  UNL1        0.0337
     12 N           6.6680    2.1484    6.6707 N.am    1  UNL1       -0.2815
     13 C           6.0911    1.7889    7.8841 C.2     1  UNL1        0.2483
     14 O           5.0876    1.0897    8.0403 O.2     1  UNL1       -0.2699
     15 C           6.6743    2.2962    9.1485 C.ar    1  UNL1        0.0374
     16 C           6.6041    1.4562   10.2780 C.ar    1  UNL1       -0.0432
     17 C           6.8796    1.9482   11.5558 C.ar    1  UNL1        0.0163
     18 C           7.2984    3.2744   11.6965 C.ar    1  UNL1        0.2732
     19 N           7.7092    3.7689   13.0185 N.pl3   1  UNL1        0.0796
     20 O           7.6499    2.9820   13.9739 O.2     1  UNL1        0.0414
     21 O           8.1205    4.9354   13.0919 O.co2   1  UNL1       -0.5760
     22 C           7.3732    4.1207   10.5766 C.ar    1  UNL1        0.0163
     23 C           7.0549    3.6316    9.3007 C.ar    1  UNL1       -0.0432
     24 C           4.9582    1.0573    5.2534 C.ar    1  UNL1       -0.0398
     25 C           4.3915    0.7740    4.0108 C.ar    1  UNL1       -0.0479
     26 H           0.7002   -0.3546   -0.8469 H       1  UNL1        0.0250
     27 H           0.7096    1.0597    0.2151 H       1  UNL1        0.0250
     28 H           0.7143   -0.5668    0.9089 H       1  UNL1        0.0250
     29 H           2.7214   -1.8321   -1.0625 H       1  UNL1        0.0250
     30 H           2.7590   -2.0460    0.6971 H       1  UNL1        0.0250
     31 H           4.1990   -1.5010   -0.1609 H       1  UNL1        0.0250
     32 H           2.7053    0.5143   -2.0724 H       1  UNL1        0.0250
     33 H           4.1866    0.9386   -1.2279 H       1  UNL1        0.0250
     34 H           2.7526    1.9374   -1.0110 H       1  UNL1        0.0250
     35 H           2.5389    0.9008    2.0311 H       1  UNL1        0.1495
     36 H           6.6597    2.3660    2.0547 H       1  UNL1        0.0626
     37 H           7.7091    2.7869    4.2498 H       1  UNL1        0.0636
     38 H           7.5125    2.7088    6.6783 H       1  UNL1        0.1551
     39 H           6.2934    0.4168   10.1640 H       1  UNL1        0.0627
     40 H           6.7453    1.2972   12.4184 H       1  UNL1        0.0685
     41 H           7.6489    5.1679   10.6881 H       1  UNL1        0.0685
     42 H           7.0505    4.3123    8.4545 H       1  UNL1        0.0627
     43 H           4.4513    0.6209    6.1036 H       1  UNL1        0.0636
     44 H           3.5137    0.1378    3.9734 H       1  UNL1        0.0626
@<TRIPOS>UNITY_ATOM_ATTR
19 1
charge 1
21 1
charge -1
@<TRIPOS>BOND
     1     1     2    1
     2     2     3    1
     3     2     4    1
     4     2     5    1
     5     5     6   am
     6     6     7    2
     7     6     8    1
     8     8     9   ar
     9     9    10   ar
    10    10    11   ar
    11    11    12    1
    12    12    13   am
    13    13    14    2
    14    13    15    1
    15    15    16   ar
    16    16    17   ar
    17    17    18   ar
    18    18    19    1
    19    19    20    2
    20    19    21    1
    21    18    22   ar
    22    22    23   ar
    23    15    23   ar
    24    11    24   ar
    25    24    25   ar
    26     8    25   ar
    27     1    26    1
    28     1    27    1
    29     1    28    1
    30     3    29    1
    31     3    30    1
    32     3    31    1
    33     4    32    1
    34     4    33    1
    35     4    34    1
    36     5    35    1
    37     9    36    1
    38    10    37    1
    39    12    38    1
    40    16    39    1
    41    17    40    1
    42    22    41    1
    43    23    42    1
    44    24    43    1
    45    25    44    1
