REMARK  7 active torsions:
REMARK  status: ('A' for Active; 'I' for Inactive)
REMARK    1  A    between atoms: C_12  and  N_13 
REMARK       I    between atoms: N_13  and  C_14 
REMARK    2  A    between atoms: C_14  and  C_16 
REMARK    3  A    between atoms: C_16  and  S_17 
REMARK    4  A    between atoms: S_17  and  C_18 
REMARK    5  A    between atoms: C_21  and  C_22 
REMARK    6  A    between atoms: C_22  and  C_23 
REMARK    7  A    between atoms: N_28  and  C_29 
ROOT
ATOM      1  C   UNL d   1       7.936  -2.193  -2.887  0.00  0.00     0.180 C 
ENDROOT
BRANCH   1   2
ATOM      2  C   UNL d   1       6.426  -2.095  -3.074  0.00  0.00     0.229 C 
ATOM      3  N   UNL d   1       5.622  -2.631  -2.087  0.00  0.00    -0.330 N 
ATOM      4  H   UNL d   1       5.937  -3.375  -1.481  0.00  0.00     0.165 HD
ATOM      5  O   UNL d   1       5.943  -1.657  -4.113  0.00  0.00    -0.273 OA
BRANCH   3   6
ATOM      6  C   UNL d   1       4.192  -2.465  -2.201  0.00  0.00     0.264 A 
ATOM      7  O   UNL d   1       3.592  -3.366  -1.233  0.00  0.00    -0.353 OA
ATOM      8  C   UNL d   1       2.801  -2.593  -0.286  0.00  0.00     0.152 A 
ATOM      9  C   UNL d   1       3.049  -1.174  -0.656  0.00  0.00    -0.017 A 
ATOM     10  C   UNL d   1       1.332  -3.010  -0.371  0.00  0.00     0.044 C 
ATOM     11  C   UNL d   1       3.805  -1.119  -1.750  0.00  0.00     0.066 A 
ATOM     12  C   UNL d   1       2.547   0.026   0.063  0.00  0.00     0.105 C 
ATOM     13  C   UNL d   1       4.115   0.174  -2.358  0.00  0.00     0.266 C 
ATOM     14  N   UNL d   1       3.799   1.283  -1.628  0.00  0.00    -0.287 N 
ATOM     15  O   UNL d   1       4.641   0.342  -3.454  0.00  0.00    -0.266 OA
ATOM     16  N   UNL d   1       3.027   1.312  -0.467  0.00  0.00    -0.229 NA
ATOM     17  H   UNL d   1       3.999   2.147  -2.126  0.00  0.00     0.184 HD
ATOM     18  H   UNL d   1       3.550   1.807   0.254  0.00  0.00     0.147 HD
ATOM     19  C   UNL d   1       1.028   0.113   0.018  0.00  0.00     0.033 C 
ENDBRANCH   3   6
ENDBRANCH   1   2
BRANCH   1  20
ATOM     20  S   UNL d   1       8.781  -1.067  -4.095  0.00  0.00    -0.118 SA
BRANCH  20  21
ATOM     21  C   UNL d   1      10.553  -1.461  -4.008  0.00  0.00     0.244 C 
ATOM     22  N   UNL d   1      11.325  -0.358  -4.581  0.00  0.00    -0.183 NA
ATOM     23  N   UNL d   1      11.487  -0.478  -5.934  0.00  0.00    -0.185 NA
ATOM     24  H   UNL d   1      11.065   0.575  -4.267  0.00  0.00     0.152 HD
ATOM     25  C   UNL d   1      11.311  -1.742  -6.194  0.00  0.00     0.123 C 
ATOM     26  N   UNL d   1      10.947  -2.472  -4.997  0.00  0.00    -0.336 N 
BRANCH  25  27
ATOM     27  C   UNL d   1      11.483  -2.385  -7.556  0.00  0.00     0.126 C 
BRANCH  27  28
ATOM     28  C   UNL d   1      11.807  -1.343  -8.597  0.00  0.00    -0.011 A 
ATOM     29  C   UNL d   1      12.929  -0.538  -8.640  0.00  0.00     0.015 A 
ATOM     30  C   UNL d   1      12.850   0.460  -9.649  0.00  0.00     0.008 A 
ATOM     31  C   UNL d   1      11.707   0.336 -10.405  0.00  0.00     0.050 A 
ATOM     32  S   UNL d   1      10.736  -0.978  -9.884  0.00  0.00    -0.106 SA
ENDBRANCH  27  28
ENDBRANCH  25  27
BRANCH  26  33
ATOM     33  C   UNL d   1      11.190  -3.897  -4.762  0.00  0.00     0.088 C 
ATOM     34  C   UNL d   1      12.232  -4.169  -3.659  0.00  0.00     0.025 C 
ATOM     35  C   UNL d   1      12.327  -5.673  -3.337  0.00  0.00     0.002 C 
ATOM     36  C   UNL d   1      10.971  -6.273  -2.969  0.00  0.00     0.000 C 
ATOM     37  C   UNL d   1       9.956  -6.019  -4.077  0.00  0.00     0.002 C 
ATOM     38  C   UNL d   1       9.873  -4.537  -4.374  0.00  0.00     0.025 C 
ENDBRANCH  26  33
ENDBRANCH  20  21
ENDBRANCH   1  20
TORSDOF 7
