@<TRIPOS>MOLECULE
*****
 40 42 0 0 0
SMALL
GASTEIGER

@<TRIPOS>ATOM
      1 O          -1.7599    0.1759    0.6091 O.3     1  UNL1       -0.3899
      2 C          -0.9038    0.0747   -0.5371 C.3     1  UNL1        0.0752
      3 C          -0.1259   -1.2143   -0.3992 C.3     1  UNL1       -0.0066
      4 C           1.0676   -0.8513    0.5384 C.3     1  UNL1        0.0248
      5 N           0.8738   -1.4438    1.8353 N.pl3   1  UNL1       -0.3408
      6 C           0.9214   -2.8301    1.9659 C.ar    1  UNL1        0.0273
      7 C           1.0056   -3.7267    0.8786 C.ar    1  UNL1       -0.0408
      8 C           0.7346   -5.0855    1.0309 C.ar    1  UNL1       -0.0600
      9 C           0.5049   -5.5927    2.3008 C.ar    1  UNL1       -0.0616
     10 C           0.5260   -4.7383    3.4015 C.ar    1  UNL1       -0.0600
     11 C           0.7203   -3.3683    3.2307 C.ar    1  UNL1       -0.0408
     12 C           1.1900    0.6930    0.5131 C.3     1  UNL1       -0.0137
     13 C           0.1729    1.1785   -0.5374 C.3     1  UNL1        0.0483
     14 N           0.7593    1.5012   -1.8829 N.pl3   1  UNL1       -0.3384
     15 C           1.5204    0.7120   -2.7237 C.ar    1  UNL1        0.0274
     16 C           2.0581   -0.4906   -2.3321 C.ar    1  UNL1       -0.0408
     17 C           2.6502   -1.4861   -3.0774 C.ar    1  UNL1       -0.0600
     18 C           2.9129   -1.1848   -4.3857 C.ar    1  UNL1       -0.0616
     19 C           2.5504    0.0836   -4.8440 C.ar    1  UNL1       -0.0600
     20 C           1.8276    1.0127   -4.0455 C.ar    1  UNL1       -0.0408
     21 H          -2.1719   -0.7024    0.7294 H       1  UNL1        0.2099
     22 H          -1.5404    0.0930   -1.4245 H       1  UNL1        0.0612
     23 H           0.1726   -1.5529   -1.3936 H       1  UNL1        0.0309
     24 H          -0.7473   -2.0289   -0.0190 H       1  UNL1        0.0309
     25 H           2.0422   -1.2733    0.2671 H       1  UNL1        0.0499
     26 H           0.9061   -0.8555    2.6564 H       1  UNL1        0.1463
     27 H           1.2253   -3.3883   -0.1311 H       1  UNL1        0.0636
     28 H           0.6798   -5.7305    0.1572 H       1  UNL1        0.0618
     29 H           0.3131   -6.6522    2.4339 H       1  UNL1        0.0618
     30 H           0.3553   -5.1278    4.3988 H       1  UNL1        0.0618
     31 H           0.6903   -2.7071    4.0907 H       1  UNL1        0.0636
     32 H           2.2020    1.0284    0.2473 H       1  UNL1        0.0302
     33 H           0.9679    1.1189    1.4973 H       1  UNL1        0.0302
     34 H          -0.2783    2.1085   -0.1644 H       1  UNL1        0.0523
     35 H           0.5453    2.4380   -2.2125 H       1  UNL1        0.1464
     36 H           2.0816   -0.7057   -1.3058 H       1  UNL1        0.0636
     37 H           2.9212   -2.4193   -2.5979 H       1  UNL1        0.0618
     38 H           3.4319   -1.9159   -4.9884 H       1  UNL1        0.0618
     39 H           2.8474    0.3593   -5.8527 H       1  UNL1        0.0618
     40 H           1.5459    1.9664   -4.4733 H       1  UNL1        0.0636
@<TRIPOS>BOND
     1     1     2    1
     2     2     3    1
     3     3     4    1
     4     5     6    1
     5     6     7   ar
     6     7     8   ar
     7     8     9   ar
     8     9    10   ar
     9    10    11   ar
    10     6    11   ar
    11     4    12    1
    12    12    13    1
    13     2    13    1
    14    14    15    1
    15    15    16   ar
    16    16    17   ar
    17    17    18   ar
    18    18    19   ar
    19    19    20   ar
    20    15    20   ar
    21     4     5    1
    22    13    14    1
    23     1    21    1
    24     2    22    1
    25     3    23    1
    26     3    24    1
    27     4    25    1
    28     5    26    1
    29     7    27    1
    30     8    28    1
    31     9    29    1
    32    10    30    1
    33    11    31    1
    34    12    32    1
    35    12    33    1
    36    13    34    1
    37    14    35    1
    38    16    36    1
    39    17    37    1
    40    18    38    1
    41    19    39    1
    42    20    40    1
