@<TRIPOS>MOLECULE
*****
 38 39 0 0 0
SMALL
GASTEIGER

@<TRIPOS>ATOM
      1 C          -4.1369  -16.7316    2.0154 C.3     1  UNL1       -0.0396
      2 C          -4.0637  -15.3453    1.4434 C.ar    1  UNL1       -0.0470
      3 C          -4.5748  -14.2383    2.1240 C.ar    1  UNL1       -0.0579
      4 C          -4.5144  -12.9547    1.5568 C.ar    1  UNL1       -0.0458
      5 C          -3.9323  -12.7403    0.2982 C.ar    1  UNL1        0.0795
      6 C          -3.8751  -11.3650   -0.3142 C.2     1  UNL1        0.2637
      7 O          -3.3386  -11.2237   -1.4198 O.2     1  UNL1       -0.2685
      8 N          -4.4269  -10.2922    0.3891 N.am    1  UNL1       -0.2303
      9 N          -4.3093   -8.9841   -0.1267 N.am    1  UNL1       -0.2339
     10 C          -4.9008   -7.8878    0.5188 C.2     1  UNL1        0.2325
     11 O          -5.4775   -7.9885    1.6038 O.2     1  UNL1       -0.2740
     12 C          -4.7056   -6.5569   -0.2382 C.3     1  UNL1        0.0407
     13 C          -5.3357   -5.2557    0.3348 C.3     1  UNL1       -0.0236
     14 C          -5.2356   -4.0987   -0.6512 C.2     1  UNL1       -0.0872
     15 C          -4.9720   -4.2666   -1.9573 C.2     1  UNL1       -0.0879
     16 C          -4.7918   -5.6109   -2.5830 C.3     1  UNL1       -0.0341
     17 C          -5.2277   -6.7436   -1.6693 C.3     1  UNL1       -0.0382
     18 C          -3.3982  -13.8624   -0.3681 C.ar    1  UNL1        0.1292
     19 O          -2.7733  -13.8087   -1.5880 O.3     1  UNL1       -0.5060
     20 C          -3.4707  -15.1446    0.1940 C.ar    1  UNL1       -0.0165
     21 H          -4.6299  -16.7464    2.9930 H       1  UNL1        0.0278
     22 H          -3.1293  -17.1422    2.1397 H       1  UNL1        0.0278
     23 H          -4.7051  -17.3848    1.3442 H       1  UNL1        0.0278
     24 H          -5.0305  -14.3585    3.1054 H       1  UNL1        0.0620
     25 H          -4.9364  -12.1433    2.1372 H       1  UNL1        0.0626
     26 H          -4.8790  -10.3551    1.2954 H       1  UNL1        0.1731
     27 H          -3.8529   -8.9213   -1.0355 H       1  UNL1        0.1728
     28 H          -3.6188   -6.3898   -0.2407 H       1  UNL1        0.0398
     29 H          -4.8236   -4.9556    1.2580 H       1  UNL1        0.0315
     30 H          -6.3938   -5.3886    0.5941 H       1  UNL1        0.0315
     31 H          -5.3721   -3.0849   -0.2765 H       1  UNL1        0.0569
     32 H          -4.8864   -3.4076   -2.6198 H       1  UNL1        0.0569
     33 H          -3.7353   -5.7412   -2.8451 H       1  UNL1        0.0308
     34 H          -5.3707   -5.6757   -3.5097 H       1  UNL1        0.0308
     35 H          -4.8837   -7.6736   -2.1237 H       1  UNL1        0.0276
     36 H          -6.3237   -6.8119   -1.6392 H       1  UNL1        0.0276
     37 H          -2.7627  -12.8762   -1.8899 H       1  UNL1        0.2922
     38 H          -3.0597  -15.9938   -0.3501 H       1  UNL1        0.0657
@<TRIPOS>BOND
     1     1     2    1
     2     2     3   ar
     3     3     4   ar
     4     4     5   ar
     5     5     6    1
     6     6     7    2
     7     6     8   am
     8     8     9    1
     9     9    10   am
    10    10    11    2
    11    12    13    1
    12    13    14    1
    13    14    15    2
    14    15    16    1
    15    16    17    1
    16    12    17    1
    17     5    18   ar
    18    18    19    1
    19    18    20   ar
    20     2    20   ar
    21    12    10    1
    22     1    21    1
    23     1    22    1
    24     1    23    1
    25     3    24    1
    26     4    25    1
    27     8    26    1
    28     9    27    1
    29    12    28    1
    30    13    29    1
    31    13    30    1
    32    14    31    1
    33    15    32    1
    34    16    33    1
    35    16    34    1
    36    17    35    1
    37    17    36    1
    38    19    37    1
    39    20    38    1
