REMARK  10 active torsions:
REMARK  status: ('A' for Active; 'I' for Inactive)
REMARK    1  A    between atoms: C_2  and  C_3 
REMARK       I    between atoms: C_2  and  N_30 
REMARK    2  A    between atoms: C_3  and  S_4 
REMARK    3  A    between atoms: S_4  and  C_5 
REMARK    4  A    between atoms: N_15  and  N_16 
REMARK       I    between atoms: N_16  and  C_17 
REMARK    5  A    between atoms: C_17  and  C_19 
REMARK    6  A    between atoms: C_19  and  C_20 
REMARK    7  A    between atoms: C_20  and  C_21 
REMARK    8  A    between atoms: N_30  and  C_31 
REMARK    9  A    between atoms: C_31  and  C_32 
REMARK   10  A    between atoms: C_32  and  C_33 
ROOT
ATOM      1  C   UNL d   1       2.989   0.783  -4.035  0.00  0.00     0.274 C 
ATOM      2  N   UNL d   1       3.495   2.139  -3.959  0.00  0.00    -0.358 N 
ATOM      3  C   UNL d   1       4.471   2.499  -4.889  0.00  0.00     0.046 A 
ATOM      4  C   UNL d   1       4.749   3.830  -5.213  0.00  0.00     0.030 A 
ATOM      5  C   UNL d   1       5.856   4.163  -6.018  0.00  0.00     0.002 A 
ATOM      6  C   UNL d   1       6.720   3.177  -6.488  0.00  0.00     0.001 A 
ATOM      7  C   UNL d   1       6.441   1.853  -6.205  0.00  0.00     0.019 A 
ATOM      8  C   UNL d   1       5.314   1.530  -5.437  0.00  0.00     0.060 A 
ATOM      9  C   UNL d   1       5.037   0.119  -5.168  0.00  0.00     0.277 C 
ATOM     10  O   UNL d   1       5.647  -0.705  -5.853  0.00  0.00    -0.266 OA
ATOM     11  N   UNL d   1       4.109  -0.147  -4.155  0.00  0.00    -0.221 N 
ATOM     12  H   UNL d   1       2.834   2.845  -3.657  0.00  0.00     0.162 HD
ENDROOT
BRANCH  11  13
ATOM     13  N   UNL d   1       3.866  -1.531  -3.789  0.00  0.00    -0.262 N 
ATOM     14  C   UNL d   1       4.968  -2.363  -3.637  0.00  0.00     0.236 C 
ATOM     15  O   UNL d   1       6.126  -2.098  -3.946  0.00  0.00    -0.272 OA
ATOM     16  H   UNL d   1       3.049  -1.675  -3.198  0.00  0.00     0.190 HD
BRANCH  14  17
ATOM     17  C   UNL d   1       4.720  -3.666  -2.929  0.00  0.00     0.109 C 
BRANCH  17  18
ATOM     18  C   UNL d   1       5.971  -4.520  -3.178  0.00  0.00     0.046 C 
BRANCH  18  19
ATOM     19  C   UNL d   1       5.922  -5.845  -2.527  0.00  0.00    -0.050 A 
ATOM     20  C   UNL d   1       6.072  -7.023  -3.132  0.00  0.00    -0.006 A 
ATOM     21  C   UNL d   1       6.288  -7.418  -4.482  0.00  0.00     0.014 A 
ATOM     22  C   UNL d   1       5.996  -8.005  -2.038  0.00  0.00     0.038 A 
ATOM     23  C   UNL d   1       6.406  -8.727  -4.747  0.00  0.00     0.001 A 
ATOM     24  C   UNL d   1       6.323  -9.726  -3.691  0.00  0.00     0.002 A 
ATOM     25  C   UNL d   1       6.129  -9.428  -2.391  0.00  0.00     0.030 A 
ATOM     26  N   UNL d   1       5.821  -7.450  -0.899  0.00  0.00    -0.385 N 
ATOM     27  C   UNL d   1       5.756  -5.987  -1.049  0.00  0.00     0.155 A 
ATOM     28  H   UNL d   1       5.739  -7.966  -0.026  0.00  0.00     0.160 HD
ENDBRANCH  18  19
ENDBRANCH  17  18
ENDBRANCH  14  17
ENDBRANCH  11  13
BRANCH   1  29
ATOM     29  S   UNL d   1       1.895   0.496  -2.616  0.00  0.00    -0.112 SA
BRANCH  29  30
ATOM     30  C   UNL d   1       3.082   0.341  -1.233  0.00  0.00     0.180 C 
BRANCH  30  31
ATOM     31  C   UNL d   1       2.334   0.066   0.083  0.00  0.00     0.227 C 
ATOM     32  O   UNL d   1       1.112  -0.009   0.186  0.00  0.00    -0.273 OA
ATOM     33  N   UNL d   1       3.078  -0.165   1.212  0.00  0.00    -0.360 N 
ATOM     34  H   UNL d   1       2.520  -0.324   2.045  0.00  0.00     0.162 HD
BRANCH  33  35
ATOM     35  C   UNL d   1       4.517  -0.191   1.288  0.00  0.00     0.127 C 
BRANCH  35  36
ATOM     36  C   UNL d   1       5.077  -0.488   2.685  0.00  0.00     0.058 C 
BRANCH  36  37
ATOM     37  C   UNL d   1       6.592  -0.481   2.710  0.00  0.00    -0.057 C 
ATOM     38  C   UNL d   1       7.271  -0.129   3.884  0.00  0.00     0.007 C 
ATOM     39  C   UNL d   1       8.655   0.067   3.862  0.00  0.00     0.001 C 
ATOM     40  C   UNL d   1       9.386  -0.203   2.707  0.00  0.00     0.000 C 
ATOM     41  C   UNL d   1       8.740  -0.698   1.582  0.00  0.00     0.001 C 
ATOM     42  C   UNL d   1       7.353  -0.802   1.574  0.00  0.00     0.007 C 
ENDBRANCH  36  37
ENDBRANCH  35  36
ENDBRANCH  33  35
ENDBRANCH  30  31
ENDBRANCH  29  30
ENDBRANCH   1  29
TORSDOF 10
