REMARK  5 active torsions:
REMARK  status: ('A' for Active; 'I' for Inactive)
REMARK    1  A    between atoms: N_4  and  C_5 
REMARK    2  A    between atoms: C_13  and  C_14 
REMARK    3  A    between atoms: C_22  and  C_23 
REMARK       I    between atoms: C_23  and  N_25 
REMARK    4  A    between atoms: N_25  and  N_26 
REMARK    5  A    between atoms: C_27  and  C_28 
ROOT
ATOM      1  C   UNL d   1       1.074   0.124  -0.038  0.00  0.00     0.073 C 
ATOM      2  C   UNL d   1       2.553  -0.025  -0.028  0.00  0.00     0.066 A 
ATOM      3  N   UNL d   1       3.340   1.055   0.069  0.00  0.00    -0.170 NA
ATOM      4  N   UNL d   1       4.609   0.571  -0.024  0.00  0.00    -0.215 N 
ATOM      5  C   UNL d   1       4.633  -0.820  -0.082  0.00  0.00     0.165 A 
ATOM      6  N   UNL d   1       5.729  -1.623  -0.076  0.00  0.00    -0.228 NA
ATOM      7  C   UNL d   1       5.439  -2.943  -0.071  0.00  0.00     0.070 A 
ATOM      8  C   UNL d   1       4.141  -3.466  -0.068  0.00  0.00     0.050 A 
ATOM      9  C   UNL d   1       3.021  -2.627  -0.076  0.00  0.00     0.052 A 
ATOM     10  C   UNL d   1       3.296  -1.238  -0.067  0.00  0.00     0.054 A 
ENDROOT
BRANCH   9  11
ATOM     11  C   UNL d   1       1.617  -3.171  -0.051  0.00  0.00     0.272 C 
ATOM     12  O   UNL d   1       0.636  -2.423  -0.001  0.00  0.00    -0.266 OA
ATOM     13  N   UNL d   1       1.439  -4.537  -0.083  0.00  0.00    -0.243 N 
ATOM     14  H   UNL d   1       2.213  -5.163  -0.228  0.00  0.00     0.192 HD
BRANCH  13  15
ATOM     15  N   UNL d   1       0.167  -5.059  -0.024  0.00  0.00    -0.183 NA
ATOM     16  C   UNL d   1       0.007  -6.349  -0.016  0.00  0.00     0.150 C 
BRANCH  16  17
ATOM     17  C   UNL d   1       1.086  -7.348   0.016  0.00  0.00    -0.017 C 
ATOM     18  C   UNL d   1       1.116  -8.353  -0.950  0.00  0.00     0.016 C 
ATOM     19  C   UNL d   1       2.304  -9.060  -1.131  0.00  0.00     0.043 C 
ATOM     20  C   UNL d   1       3.341  -8.916  -0.211  0.00  0.00     0.116 C 
ATOM     21  F   UNL d   1       4.434  -9.679  -0.326  0.00  0.00    -0.206 F 
ATOM     22  C   UNL d   1       3.254  -8.009   0.837  0.00  0.00     0.043 C 
ATOM     23  C   UNL d   1       2.139  -7.187   0.925  0.00  0.00     0.016 C 
ENDBRANCH  16  17
ENDBRANCH  13  15
ENDBRANCH   9  11
BRANCH   7  24
ATOM     24  C   UNL d   1       6.568  -3.890  -0.053  0.00  0.00    -0.007 C 
ATOM     25  C   UNL d   1       7.414  -4.001   1.061  0.00  0.00     0.015 C 
ATOM     26  C   UNL d   1       8.277  -5.095   1.191  0.00  0.00     0.024 C 
ATOM     27  C   UNL d   1       8.486  -5.942   0.106  0.00  0.00     0.034 C 
ATOM     28 CL   UNL d   1       9.707  -7.150   0.183  0.00  0.00    -0.084 Cl
ATOM     29  C   UNL d   1       7.735  -5.789  -1.054  0.00  0.00     0.024 C 
ATOM     30  C   UNL d   1       6.730  -4.819  -1.098  0.00  0.00     0.015 C 
ENDBRANCH   7  24
BRANCH   4  31
ATOM     31  C   UNL d   1       5.701   1.480  -0.040  0.00  0.00     0.060 C 
ATOM     32  C   UNL d   1       6.574   1.524  -1.131  0.00  0.00     0.031 C 
ATOM     33  C   UNL d   1       7.468   2.596  -1.244  0.00  0.00     0.002 C 
ATOM     34  C   UNL d   1       7.684   3.447  -0.160  0.00  0.00     0.000 C 
ATOM     35  C   UNL d   1       6.897   3.320   0.983  0.00  0.00     0.002 C 
ATOM     36  C   UNL d   1       5.834   2.413   0.997  0.00  0.00     0.031 C 
ENDBRANCH   4  31
TORSDOF 5
