@<TRIPOS>MOLECULE
*****
 52 54 0 0 0
SMALL
GASTEIGER

@<TRIPOS>ATOM
      1 C           7.2477   -3.3974    2.3613 C.3     1  UNL1        0.0790
      2 O           6.8316   -2.0413    2.2459 O.3     1  UNL1       -0.4914
      3 C           7.2381   -1.3689    1.1207 C.ar    1  UNL1        0.1616
      4 C           6.8187   -0.0251    1.0821 C.ar    1  UNL1       -0.0110
      5 C           7.1580    0.8185    0.0087 C.ar    1  UNL1       -0.0190
      6 C           6.6980    2.2805   -0.0199 C.3     1  UNL1        0.0792
      7 N           7.1778    2.9897    1.1631 N.am    1  UNL1       -0.3153
      8 C           8.4167    3.5468    1.2006 C.2     1  UNL1        0.1350
      9 S           9.1558    3.9687    2.6254 S.2     1  UNL1       -0.0185
     10 N           8.9817    3.8138   -0.0081 N.am    1  UNL1       -0.3001
     11 C           8.2996    3.7266   -1.2107 C.2     1  UNL1        0.0167
     12 C           8.9579    4.4674   -2.3404 C.3     1  UNL1       -0.0260
     13 C           7.1381    3.0204   -1.2650 C.2     1  UNL1        0.0571
     14 C           6.3848    2.8382   -2.5720 C.2     1  UNL1        0.2628
     15 O           6.8210    3.3649   -3.6028 O.2     1  UNL1       -0.2687
     16 N           5.2364    2.0440   -2.5849 N.am    1  UNL1       -0.2031
     17 N           4.5758    1.8857   -3.7887 N.2     1  UNL1       -0.1873
     18 C           3.4919    1.1749   -3.8387 C.2     1  UNL1        0.0563
     19 C           2.7464    0.9706   -5.1211 C.ar    1  UNL1        0.0362
     20 C           1.3458    1.0770   -5.1216 C.ar    1  UNL1       -0.0496
     21 C           0.6248    0.9173   -6.3135 C.ar    1  UNL1       -0.0609
     22 C           1.2921    0.6250   -7.4999 C.ar    1  UNL1       -0.0583
     23 C           2.6817    0.4918   -7.4996 C.ar    1  UNL1       -0.0193
     24 C           3.4191    0.6644   -6.3172 C.ar    1  UNL1        0.1287
     25 O           4.7734    0.4993   -6.2315 O.3     1  UNL1       -0.4945
     26 C           5.4890    0.2735   -7.4333 C.3     1  UNL1        0.0788
     27 C           7.9416    0.2711   -1.0234 C.ar    1  UNL1       -0.0528
     28 C           8.3471   -1.0596   -1.0073 C.ar    1  UNL1       -0.0162
     29 C           7.9948   -1.8790    0.0571 C.ar    1  UNL1        0.1585
     30 O           8.4079   -3.1817    0.0207 O.3     1  UNL1       -0.5033
     31 H           6.8691   -3.7964    3.3053 H       1  UNL1        0.0660
     32 H           8.3406   -3.4747    2.3949 H       1  UNL1        0.0660
     33 H           6.8133   -4.0064    1.5609 H       1  UNL1        0.0660
     34 H           6.2316    0.3585    1.9156 H       1  UNL1        0.0659
     35 H           5.6063    2.3135    0.0663 H       1  UNL1        0.0601
     36 H           6.7419    2.8250    2.0607 H       1  UNL1        0.1486
     37 H           9.8925    4.2629    0.0218 H       1  UNL1        0.1535
     38 H           9.8721    4.9757   -2.0106 H       1  UNL1        0.0290
     39 H           8.2896    5.2489   -2.7146 H       1  UNL1        0.0290
     40 H           9.2468    3.7915   -3.1497 H       1  UNL1        0.0290
     41 H           4.8983    1.5247   -1.7856 H       1  UNL1        0.1776
     42 H           3.0517    0.7057   -2.9412 H       1  UNL1        0.0852
     43 H           0.8026    1.3127   -4.2107 H       1  UNL1        0.0625
     44 H          -0.4580    1.0277   -6.3248 H       1  UNL1        0.0618
     45 H           0.7364    0.4969   -8.4276 H       1  UNL1        0.0619
     46 H           3.1619    0.2456   -8.4418 H       1  UNL1        0.0654
     47 H           6.5526    0.2411   -7.1827 H       1  UNL1        0.0660
     48 H           5.3365    1.0861   -8.1513 H       1  UNL1        0.0660
     49 H           5.2154   -0.6948   -7.8639 H       1  UNL1        0.0660
     50 H           8.2672    0.8674   -1.8727 H       1  UNL1        0.0622
     51 H           8.9410   -1.4305   -1.8370 H       1  UNL1        0.0655
     52 H           8.9078   -3.3490   -0.7937 H       1  UNL1        0.2923
@<TRIPOS>BOND
     1     1     2    1
     2     2     3    1
     3     3     4   ar
     4     4     5   ar
     5     6     7    1
     6     7     8    1
     7     8     9    2
     8     8    10    1
     9    10    11    1
    10    11    12    1
    11    11    13    2
    12     6    13    1
    13    13    14    1
    14    14    15    2
    15    14    16   am
    16    16    17    1
    17    17    18    2
    18    18    19    1
    19    19    20   ar
    20    20    21   ar
    21    21    22   ar
    22    22    23   ar
    23    23    24   ar
    24    19    24   ar
    25    24    25    1
    26    25    26    1
    27     5    27   ar
    28    27    28   ar
    29    28    29   ar
    30     3    29   ar
    31    29    30    1
    32     6     5    1
    33     1    31    1
    34     1    32    1
    35     1    33    1
    36     4    34    1
    37     6    35    1
    38     7    36    1
    39    10    37    1
    40    12    38    1
    41    12    39    1
    42    12    40    1
    43    16    41    1
    44    18    42    1
    45    20    43    1
    46    21    44    1
    47    22    45    1
    48    23    46    1
    49    26    47    1
    50    26    48    1
    51    26    49    1
    52    27    50    1
    53    28    51    1
    54    30    52    1
