@<TRIPOS>MOLECULE
*****
 56 57 0 0 0
SMALL
GASTEIGER

@<TRIPOS>ATOM
      1 C           2.5256   -0.3244    0.3040 C.3     1  UNL1       -0.0379
      2 C           1.0619   -0.0901    0.1059 C.ar    1  UNL1       -0.0240
      3 C           0.2359   -1.2321    0.0394 C.ar    1  UNL1       -0.0552
      4 C          -1.1617   -1.1362   -0.0337 C.ar    1  UNL1       -0.0401
      5 C          -1.7518    0.1255   -0.0913 C.ar    1  UNL1        0.0353
      6 N          -3.1341    0.2942   -0.2963 N.am    1  UNL1       -0.2842
      7 C          -3.7674    1.5602   -0.4177 C.2     1  UNL1        0.2343
      8 O          -3.2830    2.6705   -0.2211 O.2     1  UNL1       -0.2738
      9 C          -5.2536    1.4498   -0.5782 C.3     1  UNL1        0.0862
     10 N          -6.0063    2.6850   -0.3674 N.pl3   1  UNL1       -0.3338
     11 C          -7.3799    2.8520   -0.1583 C.ar    1  UNL1        0.0551
     12 C          -7.9322    3.9314   -0.9087 C.ar    1  UNL1        0.0382
     13 C          -9.2741    4.3203   -0.7725 C.ar    1  UNL1        0.2750
     14 N          -9.7649    5.5634   -1.3848 N.pl3   1  UNL1        0.0797
     15 O          -8.9750    6.2290   -2.0677 O.2     1  UNL1        0.0414
     16 O         -10.9394    5.8922   -1.1538 O.co2   1  UNL1       -0.5760
     17 C         -10.1381    3.5850    0.0280 C.ar    1  UNL1        0.0174
     18 C          -9.6261    2.5351    0.7826 C.ar    1  UNL1       -0.0326
     19 C          -8.2639    2.1496    0.7436 C.ar    1  UNL1        0.0488
     20 N          -7.9454    1.2233    1.7847 N.pl3   1  UNL1       -0.3402
     21 C          -6.6706    0.6039    1.6867 C.3     1  UNL1        0.0323
     22 C          -6.2020   -0.5562    2.5280 C.3     1  UNL1        0.0596
     23 O          -4.7903   -0.7688    2.3227 O.3     1  UNL1       -0.3935
     24 C          -0.9349    1.2403   -0.0201 C.ar    1  UNL1       -0.0138
     25 C           0.4502    1.1637    0.0366 C.ar    1  UNL1        0.1101
     26 S           1.1939    2.7819   -0.0296 S.O2    1  UNL1        0.0607
     27 O           0.7505    3.4168   -1.2459 O.2     1  UNL1       -0.1529
     28 O           0.9499    3.3998    1.2688 O.2     1  UNL1       -0.1529
     29 N           2.8637    2.5513   -0.2074 N.3     1  UNL1       -0.1827
     30 C           3.2486    1.9689   -1.5136 C.3     1  UNL1        0.0086
     31 C           3.6361    3.7929    0.0072 C.3     1  UNL1        0.0086
     32 H           2.7346   -1.3706    0.5309 H       1  UNL1        0.0278
     33 H           2.8979    0.2906    1.1262 H       1  UNL1        0.0278
     34 H           3.1054   -0.1649   -0.5982 H       1  UNL1        0.0278
     35 H           0.6988   -2.2185    0.0527 H       1  UNL1        0.0621
     36 H          -1.7357   -2.0600   -0.0467 H       1  UNL1        0.0636
     37 H          -3.6807   -0.5575   -0.3569 H       1  UNL1        0.1549
     38 H          -5.2622    0.8569    0.2943 H       1  UNL1        0.0557
     39 H          -5.6265    0.8279   -1.3897 H       1  UNL1        0.0557
     40 H          -5.4172    3.4797   -0.0968 H       1  UNL1        0.1466
     41 H          -7.2892    4.4702   -1.6079 H       1  UNL1        0.0704
     42 H         -11.1916    3.8375    0.1192 H       1  UNL1        0.0686
     43 H         -10.3009    2.0326    1.4727 H       1  UNL1        0.0639
     44 H          -8.7052    0.6145    2.0636 H       1  UNL1        0.1462
     45 H          -5.9480    1.4095    1.8750 H       1  UNL1        0.0484
     46 H          -6.7119    0.1358    0.6956 H       1  UNL1        0.0484
     47 H          -6.7099   -1.4721    2.2203 H       1  UNL1        0.0573
     48 H          -6.3470   -0.3512    3.5828 H       1  UNL1        0.0573
     49 H          -4.6339   -1.0708    1.4149 H       1  UNL1        0.2095
     50 H          -1.3451    2.2396   -0.0126 H       1  UNL1        0.0656
     51 H           2.5497    1.1987   -1.8470 H       1  UNL1        0.0408
     52 H           4.2403    1.5177   -1.3917 H       1  UNL1        0.0408
     53 H           3.2747    2.7151   -2.3038 H       1  UNL1        0.0408
     54 H           3.3747    4.2898    0.9443 H       1  UNL1        0.0408
     55 H           3.4684    4.4757   -0.8312 H       1  UNL1        0.0408
     56 H           4.6999    3.5406    0.0485 H       1  UNL1        0.0408
@<TRIPOS>UNITY_ATOM_ATTR
14 1
charge 1
16 1
charge -1
@<TRIPOS>BOND
     1     1     2    1
     2     2     3   ar
     3     3     4   ar
     4     4     5   ar
     5     5     6    1
     6     6     7   am
     7     7     8    2
     8     7     9    1
     9     9    10    1
    10    10    11    1
    11    11    12   ar
    12    12    13   ar
    13    13    14    1
    14    14    15    2
    15    14    16    1
    16    13    17   ar
    17    17    18   ar
    18    18    19   ar
    19    11    19   ar
    20    19    20    1
    21    20    21    1
    22    21    22    1
    23    22    23    1
    24     5    24   ar
    25    24    25   ar
    26     2    25   ar
    27    25    26    1
    28    26    27    2
    29    26    28    2
    30    26    29    1
    31    29    30    1
    32    29    31    1
    33     1    32    1
    34     1    33    1
    35     1    34    1
    36     3    35    1
    37     4    36    1
    38     6    37    1
    39     9    38    1
    40     9    39    1
    41    10    40    1
    42    12    41    1
    43    17    42    1
    44    18    43    1
    45    20    44    1
    46    21    45    1
    47    21    46    1
    48    22    47    1
    49    22    48    1
    50    23    49    1
    51    24    50    1
    52    30    51    1
    53    30    52    1
    54    30    53    1
    55    31    54    1
    56    31    55    1
    57    31    56    1
