REMARK  4 active torsions:
REMARK  status: ('A' for Active; 'I' for Inactive)
REMARK       I    between atoms: C_2  and  N_3 
REMARK    1  A    between atoms: C_17  and  C_2 
REMARK    2  A    between atoms: N_3  and  C_4 
REMARK    3  A    between atoms: C_7  and  N_8 
REMARK    4  A    between atoms: N_8  and  C_9 
ROOT
ATOM      1  C   UNL d   1       6.756   1.535  -1.193  0.00  0.00     0.034 A 
ATOM      2  C   UNL d   1       7.825   2.239  -0.631  0.00  0.00     0.032 A 
ATOM      3  C   UNL d   1       9.134   1.992  -1.079  0.00  0.00     0.031 A 
ATOM      4  C   UNL d   1       9.376   1.018  -2.057  0.00  0.00     0.032 A 
ATOM      5  C   UNL d   1       8.276   0.378  -2.635  0.00  0.00     0.031 A 
ATOM      6  C   UNL d   1       6.986   0.632  -2.217  0.00  0.00     0.032 A 
ENDROOT
BRANCH   1   7
ATOM      7  N   UNL d   1       5.441   1.756  -0.771  0.00  0.00    -0.326 N 
ATOM      8  C   UNL d   1       4.482   0.745  -0.722  0.00  0.00     0.236 C 
ATOM      9  O   UNL d   1       4.693  -0.455  -0.945  0.00  0.00    -0.272 OA
ATOM     10  H   UNL d   1       5.217   2.691  -0.444  0.00  0.00     0.169 HD
BRANCH   8  11
ATOM     11  C   UNL d   1       3.067   1.221  -0.475  0.00  0.00     0.164 C 
ATOM     12  C   UNL d   1       2.646   1.768  -1.812  0.00  0.00    -0.004 C 
ATOM     13  C   UNL d   1       2.522   3.079  -2.023  0.00  0.00     0.016 C 
ATOM     14  C   UNL d   1       2.705   3.948  -0.847  0.00  0.00     0.117 C 
ATOM     15  N   UNL d   1       2.940   3.579   0.369  0.00  0.00    -0.253 NA
ATOM     16  C   UNL d   1       3.011   2.232   0.669  0.00  0.00     0.117 C 
ATOM     17  S   UNL d   1       3.194   1.676   2.256  0.00  0.00    -0.062 SA
ENDBRANCH   8  11
ENDBRANCH   1   7
BRANCH   4  18
ATOM     18  N   UNL d   1      10.681   0.658  -2.433  0.00  0.00    -0.356 N 
ATOM     19  H   UNL d   1      11.447   1.045  -1.899  0.00  0.00     0.166 HD
BRANCH  18  20
ATOM     20  C   UNL d   1      11.036  -0.273  -3.425  0.00  0.00     0.032 A 
ATOM     21  C   UNL d   1      11.783  -1.414  -3.119  0.00  0.00     0.029 A 
ATOM     22  C   UNL d   1      12.105  -2.332  -4.125  0.00  0.00     0.002 A 
ATOM     23  C   UNL d   1      11.619  -2.155  -5.421  0.00  0.00     0.000 A 
ATOM     24  C   UNL d   1      10.845  -1.040  -5.726  0.00  0.00     0.002 A 
ATOM     25  C   UNL d   1      10.573  -0.101  -4.737  0.00  0.00     0.029 A 
ENDBRANCH  18  20
ENDBRANCH   4  18
TORSDOF 4
