@<TRIPOS>MOLECULE
*****
 59 61 0 0 0
SMALL
GASTEIGER

@<TRIPOS>ATOM
      1 C           2.5731    0.5605    0.0085 C.3     1  UNL1       -0.0237
      2 C           1.1150    0.2976   -0.0031 C.ar    1  UNL1        0.0257
      3 N           0.6982   -1.0077   -0.0078 N.ar    1  UNL1       -0.3578
      4 C          -0.6604   -1.0902    0.0043 C.ar    1  UNL1        0.0438
      5 C          -1.3222   -2.3398    0.0171 C.2     1  UNL1       -0.0253
      6 C          -0.8061   -3.5773    0.0122 C.2     1  UNL1        0.0479
      7 C           0.5996   -4.1102   -0.0068 C.2     1  UNL1        0.2490
      8 O           1.6395   -3.4710   -0.0217 O.2     1  UNL1       -0.2698
      9 N           0.4723   -5.4943   -0.0032 N.am    1  UNL1       -0.2809
     10 C          -0.8713   -5.8809    0.0167 C.ar    1  UNL1        0.0417
     11 C          -1.4209   -7.1510    0.0272 C.ar    1  UNL1       -0.0372
     12 C          -2.8240   -7.2513    0.0489 C.ar    1  UNL1       -0.0247
     13 C          -3.6251   -6.1031    0.0560 C.ar    1  UNL1        0.1241
     14 F          -4.9593   -6.2146    0.0730 F       1  UNL1       -0.2055
     15 C          -3.0658   -4.8397    0.0450 C.ar    1  UNL1       -0.0168
     16 C          -1.6862   -4.7469    0.0264 C.ar    1  UNL1        0.0111
     17 C          -1.1488    0.2097   -0.0025 C.ar    1  UNL1       -0.0134
     18 C          -2.5928    0.6009   -0.0054 C.3     1  UNL1       -0.0370
     19 C          -0.0112    1.1177   -0.0118 C.ar    1  UNL1        0.0604
     20 C          -0.0863    2.5962   -0.0265 C.2     1  UNL1        0.2461
     21 O          -1.1629    3.1896   -0.0261 O.2     1  UNL1       -0.2701
     22 N           1.1074    3.2981   -0.0449 N.am    1  UNL1       -0.3098
     23 C           1.1388    4.7532   -0.0666 C.3     1  UNL1        0.0276
     24 C           2.5549    5.3441   -0.0868 C.3     1  UNL1        0.0303
     25 N           2.6101    6.8040   -0.1067 N.am    1  UNL1       -0.2796
     26 C           3.8285    7.4389   -0.1253 C.2     1  UNL1        0.4008
     27 O           4.8810    6.8112   -0.1257 O.2     1  UNL1       -0.2265
     28 O           3.7252    8.8048   -0.1425 O.3     1  UNL1       -0.4447
     29 C           4.9643    9.5924   -0.1632 C.3     1  UNL1        0.1068
     30 C           5.8000    9.3394    1.1004 C.3     1  UNL1       -0.0253
     31 C           5.7789    9.3059   -1.4334 C.3     1  UNL1       -0.0253
     32 C           4.6163   11.0988   -0.1802 C.3     1  UNL1       -0.0253
     33 H           3.1583   -0.3646    0.0086 H       1  UNL1        0.0292
     34 H           2.8420    1.1203    0.9090 H       1  UNL1        0.0292
     35 H           2.8583    1.1273   -0.8822 H       1  UNL1        0.0292
     36 H           1.3282   -1.8042   -0.0154 H       1  UNL1        0.1656
     37 H          -2.4048   -2.2575    0.0331 H       1  UNL1        0.0646
     38 H           1.2815   -6.0985   -0.0135 H       1  UNL1        0.1552
     39 H          -0.8161   -8.0508    0.0193 H       1  UNL1        0.0637
     40 H          -3.3189   -8.2182    0.0606 H       1  UNL1        0.0647
     41 H          -3.7073   -3.9690    0.0514 H       1  UNL1        0.0653
     42 H          -3.2601   -0.2673    0.0198 H       1  UNL1        0.0278
     43 H          -2.8328    1.1616   -0.9132 H       1  UNL1        0.0278
     44 H          -2.8285    1.2088    0.8727 H       1  UNL1        0.0278
     45 H           1.9768    2.7964   -0.0460 H       1  UNL1        0.1491
     46 H           0.5975    5.1068    0.8170 H       1  UNL1        0.0477
     47 H           0.5830    5.0816   -0.9510 H       1  UNL1        0.0477
     48 H           3.1022    4.9762   -0.9648 H       1  UNL1        0.0478
     49 H           3.1172    4.9996    0.7912 H       1  UNL1        0.0478
     50 H           1.7708    7.3678   -0.1073 H       1  UNL1        0.1521
     51 H           6.0997    8.2942    1.1973 H       1  UNL1        0.0268
     52 H           5.2272    9.5874    2.0007 H       1  UNL1        0.0268
     53 H           6.7178    9.9376    1.0957 H       1  UNL1        0.0268
     54 H           6.0772    8.2585   -1.5076 H       1  UNL1        0.0268
     55 H           6.6966    9.9038   -1.4598 H       1  UNL1        0.0268
     56 H           5.1912    9.5301   -2.3303 H       1  UNL1        0.0268
     57 H           4.0382   11.3938    0.7019 H       1  UNL1        0.0268
     58 H           4.0235   11.3705   -1.0601 H       1  UNL1        0.0268
     59 H           5.5300   11.7109   -0.1959 H       1  UNL1        0.0268
@<TRIPOS>BOND
     1     1     2    1
     2     2     3   ar
     3     3     4   ar
     4     4     5    1
     5     5     6    2
     6     6     7    1
     7     7     8    2
     8     7     9   am
     9     9    10    1
    10    10    11   ar
    11    11    12   ar
    12    12    13   ar
    13    13    14    1
    14    13    15   ar
    15    15    16   ar
    16    10    16   ar
    17     6    16    1
    18     4    17   ar
    19    17    18    1
    20    17    19   ar
    21     2    19   ar
    22    19    20    1
    23    20    21    2
    24    20    22   am
    25    22    23    1
    26    23    24    1
    27    24    25    1
    28    25    26   am
    29    26    27    2
    30    26    28    1
    31    28    29    1
    32    29    30    1
    33    29    31    1
    34    29    32    1
    35     1    33    1
    36     1    34    1
    37     1    35    1
    38     3    36    1
    39     5    37    1
    40     9    38    1
    41    11    39    1
    42    12    40    1
    43    15    41    1
    44    18    42    1
    45    18    43    1
    46    18    44    1
    47    22    45    1
    48    23    46    1
    49    23    47    1
    50    24    48    1
    51    24    49    1
    52    25    50    1
    53    30    51    1
    54    30    52    1
    55    30    53    1
    56    31    54    1
    57    31    55    1
    58    31    56    1
    59    32    57    1
    60    32    58    1
    61    32    59    1
