REMARK  12 active torsions:
REMARK  status: ('A' for Active; 'I' for Inactive)
REMARK    1  A    between atoms: C_3  and  O_4 
REMARK    2  A    between atoms: O_4  and  C_5 
REMARK    3  A    between atoms: C_5  and  C_6 
REMARK    4  A    between atoms: C_6  and  O_7 
REMARK    5  A    between atoms: C_6  and  C_8 
REMARK    6  A    between atoms: C_8  and  N_9 
REMARK    7  A    between atoms: N_9  and  C_10 
REMARK    8  A    between atoms: N_9  and  C_28 
REMARK    9  A    between atoms: C_10  and  C_11 
REMARK   10  A    between atoms: C_15  and  C_16 
REMARK   11  A    between atoms: C_16  and  O_18 
REMARK   12  A    between atoms: O_18  and  C_19 
ROOT
ATOM      1  C   UNL d   1       1.070   0.005   0.071  0.00  0.00     0.014 C 
ATOM      2  C   UNL d   1       2.374   0.005   0.071  0.00  0.00    -0.091 C 
ATOM      3  C   UNL d   1       3.894   0.005   0.071  0.00  0.00     0.260 C 
ENDROOT
BRANCH   3   4
ATOM      4  O   UNL d   1       4.419  -0.947  -0.783  0.00  0.00    -0.377 OA
BRANCH   4   5
ATOM      5  C   UNL d   1       5.838  -0.865  -0.693  0.00  0.00     0.202 C 
BRANCH   5   6
ATOM      6  C   UNL d   1       6.295  -1.710  -1.831  0.00  0.00     0.167 C 
BRANCH   6   7
ATOM      7  O   UNL d   1       5.718  -1.025  -2.895  0.00  0.00    -0.392 OA
ATOM      8  H   UNL d   1       6.136  -0.184  -3.151  0.00  0.00     0.210 HD
ENDBRANCH   6   7
BRANCH   6   9
ATOM      9  C   UNL d   1       7.774  -1.688  -2.017  0.00  0.00     0.269 C 
BRANCH   9  10
ATOM     10  N   UNL d   1       8.272  -2.525  -3.207  0.00  0.00    -0.058 N 
ATOM     11  H   UNL d   1       7.945  -3.489  -3.061  0.00  0.00     0.281 HD
BRANCH  10  12
ATOM     12  C   UNL d   1       7.765  -2.084  -4.652  0.00  0.00     0.313 C 
BRANCH  12  13
ATOM     13  C   UNL d   1       6.255  -2.128  -4.926  0.00  0.00     0.134 C 
ATOM     14  N   UNL d   1       5.638  -1.024  -5.260  0.00  0.00    -0.225 NA
ATOM     15  C   UNL d   1       4.286  -1.052  -5.006  0.00  0.00     0.116 C 
ATOM     16  S   UNL d   1       3.405   0.378  -4.699  0.00  0.00    -0.063 SA
ATOM     17  C   UNL d   1       3.531  -2.157  -4.677  0.00  0.00     0.075 C 
ATOM     18  C   UNL d   1       1.919  -0.480  -4.499  0.00  0.00     0.089 C 
ATOM     19  C   UNL d   1       2.128  -1.858  -4.518  0.00  0.00    -0.020 C 
ATOM     20  C   UNL d   1       1.089  -2.930  -4.434  0.00  0.00     0.051 C 
ATOM     21  C   UNL d   1       4.238  -3.420  -4.573  0.00  0.00     0.260 C 
ATOM     22  O   UNL d   1       3.715  -4.514  -4.410  0.00  0.00    -0.267 OA
ATOM     23  N   UNL d   1       5.614  -3.312  -4.635  0.00  0.00    -0.309 N 
ATOM     24  H   UNL d   1       6.096  -4.188  -4.522  0.00  0.00     0.170 HD
BRANCH  18  25
ATOM     25  C   UNL d   1       0.713   0.339  -4.380  0.00  0.00     0.301 C 
ATOM     26  O   UNL d   1       0.691   1.552  -4.282  0.00  0.00    -0.259 OA
BRANCH  25  27
ATOM     27  O   UNL d   1      -0.411  -0.440  -4.451  0.00  0.00    -0.312 OA
BRANCH  27  28
ATOM     28  C   UNL d   1      -1.681   0.240  -4.444  0.00  0.00     0.124 C 
ATOM     29  C   UNL d   1      -1.840   1.082  -5.705  0.00  0.00     0.040 C 
ATOM     30  C   UNL d   1      -2.794  -0.811  -4.411  0.00  0.00     0.040 C 
ENDBRANCH  27  28
ENDBRANCH  25  27
ENDBRANCH  18  25
ENDBRANCH  12  13
ENDBRANCH  10  12
BRANCH  10  31
ATOM     31  C   UNL d   1       9.814  -2.553  -3.187  0.00  0.00     0.188 C 
ATOM     32  C   UNL d   1      10.366  -1.118  -3.250  0.00  0.00     0.033 C 
ATOM     33  C   UNL d   1      11.874  -1.072  -3.127  0.00  0.00     0.002 C 
ATOM     34  C   UNL d   1      12.331  -1.788  -1.863  0.00  0.00     0.000 C 
ATOM     35  C   UNL d   1      11.842  -3.235  -1.844  0.00  0.00     0.002 C 
ATOM     36  C   UNL d   1      10.322  -3.308  -1.946  0.00  0.00     0.033 C 
ENDBRANCH  10  31
ENDBRANCH   9  10
ENDBRANCH   6   9
ENDBRANCH   5   6
ENDBRANCH   4   5
ENDBRANCH   3   4
TORSDOF 12
