REMARK  8 active torsions:
REMARK  status: ('A' for Active; 'I' for Inactive)
REMARK    1  A    between atoms: N_1  and  N_2 
REMARK       I    between atoms: N_2  and  C_3 
REMARK    2  A    between atoms: C_3  and  C_5 
REMARK    3  A    between atoms: C_5  and  N_6 
REMARK    4  A    between atoms: C_7  and  N_6 
REMARK    5  A    between atoms: C_7  and  C_14 
REMARK    6  A    between atoms: C_7  and  C_8 
REMARK    7  A    between atoms: C_20  and  N_21 
REMARK       I    between atoms: N_21  and  C_22 
REMARK    8  A    between atoms: C_22  and  C_24 
ROOT
ATOM      1  C   UNL d   1       7.293  -0.243   4.010  0.00  0.00     0.007 A 
ATOM      2  C   UNL d   1       7.407  -1.512   4.667  0.00  0.00     0.031 A 
ATOM      3  C   UNL d   1       7.650  -1.602   6.030  0.00  0.00     0.011 A 
ATOM      4 BR   UNL d   1       7.493  -3.264   6.921  0.00  0.00    -0.051 Br
ATOM      5  C   UNL d   1       7.910  -0.450   6.753  0.00  0.00     0.021 A 
ATOM      6  C   UNL d   1       7.860   0.802   6.119  0.00  0.00     0.031 A 
ATOM      7  C   UNL d   1       7.525   0.948   4.758  0.00  0.00     0.043 A 
ENDROOT
BRANCH   1   8
ATOM      8  C   UNL d   1       6.708  -0.333   2.590  0.00  0.00     0.289 C 
BRANCH   8   9
ATOM      9  C   UNL d   1       5.163  -0.368   2.700  0.00  0.00    -0.021 A 
ATOM     10  C   UNL d   1       4.390   0.457   3.567  0.00  0.00     0.009 A 
ATOM     11  C   UNL d   1       3.005   0.472   3.574  0.00  0.00     0.001 A 
ATOM     12  C   UNL d   1       2.343  -0.449   2.793  0.00  0.00     0.000 A 
ATOM     13  C   UNL d   1       3.071  -1.348   2.007  0.00  0.00     0.001 A 
ATOM     14  C   UNL d   1       4.464  -1.294   1.935  0.00  0.00     0.009 A 
ENDBRANCH   8   9
BRANCH   8  15
ATOM     15  N   UNL d   1       7.397   0.526   1.580  0.00  0.00     0.105 N 
ATOM     16  H   UNL d   1       7.748   1.331   2.088  0.00  0.00     0.317 HD
BRANCH  15  17
ATOM     17  C   UNL d   1       6.541   1.006   0.463  0.00  0.00     0.374 C 
BRANCH  17  18
ATOM     18  C   UNL d   1       7.063   2.296  -0.251  0.00  0.00     0.259 C 
ATOM     19  N   UNL d   1       6.131   2.819  -1.179  0.00  0.00    -0.292 N 
ATOM     20  H   UNL d   1       5.205   2.402  -1.247  0.00  0.00     0.183 HD
ATOM     21  O   UNL d   1       8.142   2.840  -0.018  0.00  0.00    -0.270 OA
BRANCH  19  22
ATOM     22  N   UNL d   1       6.494   3.839  -2.108  0.00  0.00    -0.247 NA
ATOM     23  H   UNL d   1       5.732   4.510  -2.242  0.00  0.00     0.143 HD
ATOM     24  H   UNL d   1       7.296   4.361  -1.730  0.00  0.00     0.143 HD
ENDBRANCH  19  22
ENDBRANCH  17  18
ENDBRANCH  15  17
ENDBRANCH   8  15
ENDBRANCH   1   8
BRANCH   7  25
ATOM     25  N   UNL d   1       7.467   2.315   4.296  0.00  0.00    -0.322 N 
ATOM     26  C   UNL d   1       6.716   2.819   3.263  0.00  0.00     0.257 C 
ATOM     27  O   UNL d   1       5.779   2.221   2.751  0.00  0.00    -0.267 OA
ATOM     28  H   UNL d   1       7.900   3.008   4.896  0.00  0.00     0.169 HD
BRANCH  26  29
ATOM     29  C   UNL d   1       6.885   4.078   2.551  0.00  0.00     0.054 A 
ATOM     30  C   UNL d   1       5.842   4.365   1.608  0.00  0.00     0.019 A 
ATOM     31  C   UNL d   1       5.943   5.386   0.686  0.00  0.00     0.001 A 
ATOM     32  C   UNL d   1       7.080   6.166   0.713  0.00  0.00     0.002 A 
ATOM     33  C   UNL d   1       8.124   5.879   1.610  0.00  0.00     0.025 A 
ATOM     34  C   UNL d   1       8.048   4.818   2.517  0.00  0.00     0.049 A 
ATOM     35 CL   UNL d   1       9.443   4.430   3.449  0.00  0.00    -0.083 Cl
ENDBRANCH  26  29
ENDBRANCH   7  25
TORSDOF 8
