@<TRIPOS>MOLECULE
*****
 35 36 0 0 0
SMALL
GASTEIGER

@<TRIPOS>ATOM
      1 C          -2.5071   -0.5985    0.0010 C.3     1  UNL1       -0.0199
      2 C          -1.0634   -0.2454    0.0041 C.ar    1  UNL1        0.0721
      3 N          -0.7049    1.0442    0.0025 N.ar    1  UNL1       -0.1782
      4 N           0.6282    1.0088    0.0122 N.ar    1  UNL1       -0.2809
      5 C           1.1519   -0.2566    0.0040 C.ar    1  UNL1        0.0454
      6 C           2.6178   -0.4559   -0.0203 C.3     1  UNL1       -0.0222
      7 C           0.0661   -1.1293    0.0134 C.ar    1  UNL1        0.0796
      8 C           0.0158   -2.5990    0.0216 C.2     1  UNL1        0.2476
      9 O          -1.0502   -3.2117   -0.0163 O.2     1  UNL1       -0.2701
     10 N           1.2213   -3.2655    0.0743 N.am    1  UNL1       -0.3110
     11 C           1.3303   -4.7149    0.0067 C.3     1  UNL1        0.0147
     12 C           2.7870   -5.2065   -0.0074 C.3     1  UNL1       -0.0254
     13 C           2.9644   -6.6024   -0.6133 C.3     1  UNL1       -0.0488
     14 C           4.4513   -6.6788   -0.9549 C.3     1  UNL1       -0.0527
     15 C           4.8871   -5.2463   -1.2451 C.3     1  UNL1       -0.0527
     16 C           3.6994   -4.3616   -0.8985 C.3     1  UNL1       -0.0488
     17 H          -3.1412    0.2953   -0.0155 H       1  UNL1        0.0293
     18 H          -2.7597   -1.1697    0.8992 H       1  UNL1        0.0293
     19 H          -2.7531   -1.1966   -0.8815 H       1  UNL1        0.0293
     20 H           1.1248    1.8947    0.0194 H       1  UNL1        0.1885
     21 H           3.1677    0.4893    0.0033 H       1  UNL1        0.0292
     22 H           2.9029   -0.9863   -0.9348 H       1  UNL1        0.0292
     23 H           2.9342   -1.0410    0.8487 H       1  UNL1        0.0292
     24 H           2.0677   -2.7292    0.0720 H       1  UNL1        0.1490
     25 H           0.7959   -5.0477   -0.8901 H       1  UNL1        0.0465
     26 H           0.7999   -5.1284    0.8723 H       1  UNL1        0.0465
     27 H           3.1807   -5.2037    1.0190 H       1  UNL1        0.0316
     28 H           2.3788   -6.7024   -1.5353 H       1  UNL1        0.0268
     29 H           2.6616   -7.4069    0.0643 H       1  UNL1        0.0268
     30 H           4.6371   -7.3351   -1.8116 H       1  UNL1        0.0265
     31 H           5.0224   -7.0768   -0.1080 H       1  UNL1        0.0265
     32 H           5.1613   -5.1133   -2.2969 H       1  UNL1        0.0265
     33 H           5.7629   -4.9783   -0.6437 H       1  UNL1        0.0265
     34 H           3.1725   -4.0814   -1.8183 H       1  UNL1        0.0268
     35 H           4.0249   -3.4426   -0.4012 H       1  UNL1        0.0268
@<TRIPOS>BOND
     1     1     2    1
     2     2     3   ar
     3     3     4   ar
     4     4     5   ar
     5     5     6    1
     6     5     7   ar
     7     2     7   ar
     8     7     8    1
     9     8     9    2
    10     8    10   am
    11    10    11    1
    12    11    12    1
    13    12    13    1
    14    13    14    1
    15    14    15    1
    16    15    16    1
    17    12    16    1
    18     1    17    1
    19     1    18    1
    20     1    19    1
    21     4    20    1
    22     6    21    1
    23     6    22    1
    24     6    23    1
    25    10    24    1
    26    11    25    1
    27    11    26    1
    28    12    27    1
    29    13    28    1
    30    13    29    1
    31    14    30    1
    32    14    31    1
    33    15    32    1
    34    15    33    1
    35    16    34    1
    36    16    35    1
