@<TRIPOS>MOLECULE
*****
 51 52 0 0 0
SMALL
GASTEIGER

@<TRIPOS>ATOM
      1 C           1.0780   -0.0677   -0.1144 C.3     1  UNL1       -0.0570
      2 C           2.6074   -0.0448   -0.0548 C.3     1  UNL1        0.0215
      3 C           3.0566    0.0853    1.3865 C.2     1  UNL1        0.2169
      4 O           2.2340    0.3710    2.2655 O.2     1  UNL1       -0.2755
      5 N           4.4156   -0.0784    1.6255 N.am    1  UNL1       -0.2853
      6 C           4.9146   -0.0823    2.9564 C.ar    1  UNL1        0.0364
      7 C           5.9980    0.7323    3.3212 C.ar    1  UNL1       -0.0385
      8 C           6.4676    0.7560    4.6577 C.ar    1  UNL1       -0.0391
      9 C           5.8702   -0.0272    5.6514 C.ar    1  UNL1        0.0280
     10 N           6.3701   -0.0885    6.9398 N.pl3   1  UNL1       -0.3331
     11 C           5.8313   -0.9569    8.0147 C.3     1  UNL1        0.0948
     12 C           6.0541   -2.4307    7.6642 C.3     1  UNL1       -0.0381
     13 C           6.5561   -0.6457    9.3549 C.2     1  UNL1        0.2372
     14 O           7.4277    0.2274    9.4010 O.2     1  UNL1       -0.2734
     15 N           6.1762   -1.4237   10.4535 N.am    1  UNL1       -0.2839
     16 C           6.7119   -1.2366   11.7500 C.ar    1  UNL1        0.0345
     17 C           6.9375   -2.3244   12.5965 C.ar    1  UNL1       -0.0404
     18 C           7.4044   -2.1041   13.8978 C.ar    1  UNL1       -0.0590
     19 C           7.6583   -0.8024   14.3450 C.ar    1  UNL1       -0.0482
     20 C           7.4180    0.2962   13.5128 C.ar    1  UNL1        0.0094
     21 S           7.6706    1.9383   14.1789 S.3     1  UNL1       -0.1285
     22 C           7.1381    3.0262   12.8191 C.3     1  UNL1       -0.0135
     23 C           6.9554    0.0568   12.2189 C.ar    1  UNL1       -0.0271
     24 C           4.7911   -0.8152    5.2509 C.ar    1  UNL1       -0.0362
     25 C           4.3386   -0.9067    3.9290 C.ar    1  UNL1       -0.0275
     26 C           3.3115   -1.9661    3.6325 C.3     1  UNL1       -0.0379
     27 H           0.7139   -0.0867   -1.1445 H       1  UNL1        0.0234
     28 H           0.6527    0.8167    0.3756 H       1  UNL1        0.0234
     29 H           0.6804   -0.9467    0.4081 H       1  UNL1        0.0234
     30 H           2.9819    0.8202   -0.6101 H       1  UNL1        0.0356
     31 H           3.0068   -0.9602   -0.5044 H       1  UNL1        0.0356
     32 H           5.0568    0.1611    0.8796 H       1  UNL1        0.1548
     33 H           6.4615    1.4012    2.5998 H       1  UNL1        0.0637
     34 H           7.2987    1.4125    4.9125 H       1  UNL1        0.0637
     35 H           7.0973    0.5629    7.2355 H       1  UNL1        0.1468
     36 H           4.7683   -0.7267    8.1662 H       1  UNL1        0.0591
     37 H           7.1232   -2.6512    7.5960 H       1  UNL1        0.0252
     38 H           5.6222   -2.7275    6.7072 H       1  UNL1        0.0252
     39 H           5.6039   -3.0906    8.4094 H       1  UNL1        0.0252
     40 H           5.5805   -2.2317   10.3225 H       1  UNL1        0.1549
     41 H           6.8206   -3.3478   12.2494 H       1  UNL1        0.0636
     42 H           7.5717   -2.9416   14.5725 H       1  UNL1        0.0618
     43 H           8.0416   -0.6526   15.3530 H       1  UNL1        0.0629
     44 H           7.2325    4.0662   13.1414 H       1  UNL1        0.0344
     45 H           6.0900    2.8510   12.5552 H       1  UNL1        0.0344
     46 H           7.7713    2.8862   11.9380 H       1  UNL1        0.0344
     47 H           6.7312    0.8852   11.5601 H       1  UNL1        0.0647
     48 H           4.2690   -1.4238    5.9780 H       1  UNL1        0.0639
     49 H           3.1186   -2.5920    4.5098 H       1  UNL1        0.0278
     50 H           3.6708   -2.6238    2.8349 H       1  UNL1        0.0278
     51 H           2.3447   -1.5473    3.3643 H       1  UNL1        0.0278
@<TRIPOS>BOND
     1     1     2    1
     2     2     3    1
     3     3     4    2
     4     3     5   am
     5     5     6    1
     6     6     7   ar
     7     7     8   ar
     8     8     9   ar
     9     9    10    1
    10    10    11    1
    11    11    12    1
    12    11    13    1
    13    13    14    2
    14    13    15   am
    15    15    16    1
    16    16    17   ar
    17    17    18   ar
    18    18    19   ar
    19    19    20   ar
    20    20    21    1
    21    21    22    1
    22    20    23   ar
    23    16    23   ar
    24     9    24   ar
    25    24    25   ar
    26     6    25   ar
    27    25    26    1
    28     1    27    1
    29     1    28    1
    30     1    29    1
    31     2    30    1
    32     2    31    1
    33     5    32    1
    34     7    33    1
    35     8    34    1
    36    10    35    1
    37    11    36    1
    38    12    37    1
    39    12    38    1
    40    12    39    1
    41    15    40    1
    42    17    41    1
    43    18    42    1
    44    19    43    1
    45    22    44    1
    46    22    45    1
    47    22    46    1
    48    23    47    1
    49    24    48    1
    50    26    49    1
    51    26    50    1
    52    26    51    1
