@<TRIPOS>MOLECULE
*****
 57 59 0 0 0
SMALL
GASTEIGER

@<TRIPOS>ATOM
      1 C           2.7372    5.2807   -0.8654 C.3     1  UNL1       -0.0442
      2 C           2.7868    4.4099   -2.1387 C.3     1  UNL1        0.0262
      3 C           1.5413    3.4963   -2.1012 C.3     1  UNL1       -0.0442
      4 C           2.7906    5.3265   -3.3589 C.3     1  UNL1       -0.0442
      5 N           3.9970    3.5862   -2.1853 N.am    1  UNL1       -0.3087
      6 C           4.1111    2.5680   -3.1342 C.2     1  UNL1        0.2389
      7 O           3.5045    2.6007   -4.2060 O.2     1  UNL1       -0.2734
      8 C           4.8680    1.2617   -2.7336 C.3     1  UNL1        0.1339
      9 C           4.0742    0.7568   -1.5464 C.ar    1  UNL1        0.0069
     10 C           4.1524    1.5078   -0.3492 C.ar    1  UNL1        0.0224
     11 C           3.4950    1.1427    0.8125 C.ar    1  UNL1        0.2736
     12 N           3.8472    1.8822    2.0445 N.pl3   1  UNL1        0.0796
     13 O           4.5530    2.9005    1.9165 O.2     1  UNL1        0.0414
     14 O           3.4777    1.4257    3.1281 O.co2   1  UNL1       -0.5760
     15 C           2.7769   -0.0531    0.8051 C.ar    1  UNL1        0.0170
     16 C           2.7018   -0.8287   -0.3789 C.ar    1  UNL1       -0.0366
     17 C           3.3071   -0.4098   -1.5678 C.ar    1  UNL1        0.0468
     18 CL          3.3483   -1.5203   -2.8967 Cl      1  UNL1       -0.0832
     19 N           6.3738    1.2229   -2.6433 N.am    1  UNL1       -0.2513
     20 C           7.2073    0.6450   -1.6213 C.2     1  UNL1        0.2518
     21 O           8.4261    0.7144   -1.6404 O.2     1  UNL1       -0.2696
     22 C           6.6948   -0.0007   -0.3601 C.ar    1  UNL1        0.0374
     23 C           5.9573   -1.1860   -0.3625 C.ar    1  UNL1       -0.0482
     24 C           5.3721   -1.6757    0.8267 C.ar    1  UNL1       -0.0427
     25 C           5.5799   -1.0257    2.0413 C.ar    1  UNL1        0.0410
     26 CL          4.6757   -1.5052    3.4325 Cl      1  UNL1       -0.0835
     27 C           6.4010    0.0981    2.0775 C.ar    1  UNL1       -0.0427
     28 C           6.9743    0.5952    0.8864 C.ar    1  UNL1       -0.0482
     29 C           7.0498    1.6790   -3.8742 C.ar    1  UNL1        0.0377
     30 C           8.1367    0.9920   -4.4394 C.ar    1  UNL1       -0.0402
     31 C           8.8501    1.5209   -5.5339 C.ar    1  UNL1       -0.0600
     32 C           8.4449    2.7049   -6.1425 C.ar    1  UNL1       -0.0616
     33 C           7.3412    3.3709   -5.6421 C.ar    1  UNL1       -0.0600
     34 C           6.6673    2.8658   -4.5239 C.ar    1  UNL1       -0.0402
     35 H           1.8313    5.9016   -0.8668 H       1  UNL1        0.0250
     36 H           3.5993    5.9511   -0.7911 H       1  UNL1        0.0250
     37 H           2.7106    4.6753    0.0493 H       1  UNL1        0.0250
     38 H           0.6182    4.0801   -2.1281 H       1  UNL1        0.0250
     39 H           1.5286    2.8820   -1.1910 H       1  UNL1        0.0250
     40 H           1.5042    2.7982   -2.9421 H       1  UNL1        0.0250
     41 H           1.8933    5.9452   -3.3959 H       1  UNL1        0.0250
     42 H           2.8364    4.7670   -4.2955 H       1  UNL1        0.0250
     43 H           3.6765    5.9723   -3.3384 H       1  UNL1        0.0250
     44 H           4.6997    3.7360   -1.4723 H       1  UNL1        0.1493
     45 H           4.6644    0.6083   -3.5924 H       1  UNL1        0.0652
     46 H           4.8820    2.3122   -0.2897 H       1  UNL1        0.0689
     47 H           2.4523   -0.5067    1.7380 H       1  UNL1        0.0686
     48 H           2.3507   -1.8596   -0.3175 H       1  UNL1        0.0634
     49 H           5.7129   -1.6604   -1.3079 H       1  UNL1        0.0625
     50 H           4.6237   -2.4676    0.7737 H       1  UNL1        0.0632
     51 H           6.5140    0.6543    3.0081 H       1  UNL1        0.0632
     52 H           7.5869    1.4931    0.9347 H       1  UNL1        0.0625
     53 H           8.4565    0.0282   -4.0493 H       1  UNL1        0.0636
     54 H           9.7415    1.0167   -5.9000 H       1  UNL1        0.0618
     55 H           8.9871    3.1139   -6.9911 H       1  UNL1        0.0618
     56 H           7.0144    4.3102   -6.0828 H       1  UNL1        0.0618
     57 H           5.8801    3.5077   -4.1625 H       1  UNL1        0.0636
@<TRIPOS>UNITY_ATOM_ATTR
12 1
charge 1
14 1
charge -1
@<TRIPOS>BOND
     1     1     2    1
     2     2     3    1
     3     2     4    1
     4     2     5    1
     5     5     6   am
     6     6     7    2
     7     9    10   ar
     8    10    11   ar
     9    11    12    1
    10    12    13    2
    11    12    14    1
    12    11    15   ar
    13    15    16   ar
    14    16    17   ar
    15     9    17   ar
    16    17    18    1
    17     8    19    1
    18    19    20   am
    19    20    21    2
    20    20    22    1
    21    22    23   ar
    22    23    24   ar
    23    24    25   ar
    24    25    26    1
    25    25    27   ar
    26    27    28   ar
    27    22    28   ar
    28    19    29    1
    29    29    30   ar
    30    30    31   ar
    31    31    32   ar
    32    32    33   ar
    33    33    34   ar
    34    29    34   ar
    35     8     9    1
    36     8     6    1
    37     1    35    1
    38     1    36    1
    39     1    37    1
    40     3    38    1
    41     3    39    1
    42     3    40    1
    43     4    41    1
    44     4    42    1
    45     4    43    1
    46     5    44    1
    47     8    45    1
    48    10    46    1
    49    15    47    1
    50    16    48    1
    51    23    49    1
    52    24    50    1
    53    27    51    1
    54    28    52    1
    55    30    53    1
    56    31    54    1
    57    32    55    1
    58    33    56    1
    59    34    57    1
