@<TRIPOS>MOLECULE
*****
 37 38 0 0 0
SMALL
GASTEIGER

@<TRIPOS>ATOM
      1 C           1.1446   -0.0347   -0.0739 C.3     1  UNL1        0.0136
      2 C           2.6557   -0.0453   -0.0331 C.2     1  UNL1        0.2260
      3 O           3.2989   -0.9032    0.5545 O.2     1  UNL1       -0.2746
      4 N           3.2521    1.0164   -0.6889 N.am    1  UNL1       -0.2345
      5 N           4.6543    1.1924   -0.5745 N.am    1  UNL1       -0.2314
      6 C           5.2832    2.0058   -1.5208 C.2     1  UNL1        0.2700
      7 O           4.5754    2.7209   -2.2392 O.2     1  UNL1       -0.2703
      8 C           6.9092    1.9776   -1.5792 C.3     1  UNL1        0.1936
      9 O           7.4067    2.1447   -0.2344 O.3     1  UNL1       -0.3711
     10 C           7.4542    0.6068   -2.0710 C.ar    1  UNL1       -0.0027
     11 C           6.7415   -0.5869   -1.8945 C.ar    1  UNL1       -0.0550
     12 C           7.2366   -1.8190   -2.3178 C.ar    1  UNL1       -0.0614
     13 C           8.3747   -1.8768   -3.1018 C.ar    1  UNL1       -0.0617
     14 C           9.1154   -0.7271   -3.2950 C.ar    1  UNL1       -0.0614
     15 C           8.7280    0.4492   -2.6521 C.ar    1  UNL1       -0.0550
     16 C           7.3994    3.2487   -2.3517 C.ar    1  UNL1       -0.0027
     17 C           8.3203    3.2719   -3.4200 C.ar    1  UNL1       -0.0550
     18 C           8.8341    4.4498   -3.9604 C.ar    1  UNL1       -0.0614
     19 C           8.2428    5.6506   -3.6283 C.ar    1  UNL1       -0.0617
     20 C           7.2447    5.6728   -2.6605 C.ar    1  UNL1       -0.0614
     21 C           6.8842    4.5035   -1.9812 C.ar    1  UNL1       -0.0550
     22 H           0.7591   -0.8776    0.5099 H       1  UNL1        0.0323
     23 H           0.7796   -0.1289   -1.0996 H       1  UNL1        0.0323
     24 H           0.7639    0.8885    0.3726 H       1  UNL1        0.0323
     25 H           2.7524    1.7040   -1.2501 H       1  UNL1        0.1728
     26 H           5.1285    0.4859   -0.0169 H       1  UNL1        0.1729
     27 H           7.2125    1.3365    0.2643 H       1  UNL1        0.2116
     28 H           5.7703   -0.6424   -1.4294 H       1  UNL1        0.0621
     29 H           6.6988   -2.7223   -2.0480 H       1  UNL1        0.0618
     30 H           8.6962   -2.8187   -3.5299 H       1  UNL1        0.0618
     31 H          10.0127   -0.7403   -3.9084 H       1  UNL1        0.0618
     32 H           9.4614    1.2508   -2.6592 H       1  UNL1        0.0621
     33 H           8.6623    2.3867   -3.9359 H       1  UNL1        0.0621
     34 H           9.6488    4.4017   -4.6791 H       1  UNL1        0.0618
     35 H           8.5310    6.5531   -4.1555 H       1  UNL1        0.0618
     36 H           6.7337    6.6016   -2.4308 H       1  UNL1        0.0618
     37 H           6.1301    4.5735   -1.1997 H       1  UNL1        0.0621
@<TRIPOS>BOND
     1     1     2    1
     2     2     3    2
     3     2     4   am
     4     4     5    1
     5     5     6   am
     6     6     7    2
     7     6     8    1
     8     8     9    1
     9     8    10    1
    10    10    11   ar
    11    11    12   ar
    12    12    13   ar
    13    13    14   ar
    14    14    15   ar
    15    10    15   ar
    16     8    16    1
    17    16    17   ar
    18    17    18   ar
    19    18    19   ar
    20    19    20   ar
    21    20    21   ar
    22    16    21   ar
    23     1    22    1
    24     1    23    1
    25     1    24    1
    26     4    25    1
    27     5    26    1
    28     9    27    1
    29    11    28    1
    30    12    29    1
    31    13    30    1
    32    14    31    1
    33    15    32    1
    34    17    33    1
    35    18    34    1
    36    19    35    1
    37    20    36    1
    38    21    37    1
