REMARK  4 active torsions:
REMARK  status: ('A' for Active; 'I' for Inactive)
REMARK    1  A    between atoms: C_5  and  C_6 
REMARK    2  A    between atoms: C_12  and  C_13 
REMARK    3  A    between atoms: C_13  and  C_14 
REMARK    4  A    between atoms: C_14  and  O_15 
ROOT
ATOM      1  C   UNL d   1       2.208  -0.117  -0.001  0.00  0.00     0.073 C 
ATOM      2  C   UNL d   1       0.727   0.027   0.012  0.00  0.00     0.059 A 
ATOM      3  N   UNL d   1      -0.025  -1.075   0.016  0.00  0.00    -0.179 NA
ATOM      4  N   UNL d   1      -1.285  -0.618   0.033  0.00  0.00    -0.277 N 
ATOM      5  C   UNL d   1      -1.380   0.748   0.040  0.00  0.00     0.068 A 
ATOM      6  C   UNL d   1      -0.073   1.216   0.018  0.00  0.00    -0.001 A 
ATOM      7  H   UNL d   1      -2.039  -1.291   0.011  0.00  0.00     0.189 HD
ENDROOT
BRANCH   5   8
ATOM      8  C   UNL d   1      -2.664   1.440  -0.004  0.00  0.00    -0.007 A 
ATOM      9  C   UNL d   1      -3.634   1.238   0.985  0.00  0.00     0.014 A 
ATOM     10  C   UNL d   1      -4.884   1.855   0.881  0.00  0.00     0.001 A 
ATOM     11  C   UNL d   1      -5.154   2.717  -0.181  0.00  0.00     0.000 A 
ATOM     12  C   UNL d   1      -4.185   2.946  -1.154  0.00  0.00     0.001 A 
ATOM     13  C   UNL d   1      -2.950   2.302  -1.070  0.00  0.00     0.014 A 
ENDBRANCH   5   8
BRANCH   6  14
ATOM     14  C   UNL d   1       0.335   2.659   0.011  0.00  0.00     0.069 C 
BRANCH  14  15
ATOM     15  C   UNL d   1       1.835   2.916   0.012  0.00  0.00     0.168 C 
BRANCH  15  16
ATOM     16  O   UNL d   1       2.127   4.306   0.013  0.00  0.00    -0.401 OA
ATOM     17  H   UNL d   1       1.830   4.662  -0.842  0.00  0.00     0.209 HD
ENDBRANCH  15  16
ENDBRANCH  14  15
ENDBRANCH   6  14
TORSDOF 4
