@<TRIPOS>MOLECULE
*****
 58 60 0 0 0
SMALL
GASTEIGER

@<TRIPOS>ATOM
      1 C           1.1077    0.0464    0.0027 C.3     1  UNL1       -0.0307
      2 C           2.6285    0.0377    0.0083 C.3     1  UNL1        0.0868
      3 O           3.0807    0.0520    1.3657 O.3     1  UNL1       -0.4922
      4 C           4.4348    0.1596    1.5438 C.ar    1  UNL1        0.1205
      5 C           4.9766   -0.5260    2.6354 C.ar    1  UNL1       -0.0193
      6 C           6.3340   -0.3879    2.9696 C.ar    1  UNL1       -0.0490
      7 C           7.1806    0.3870    2.1713 C.ar    1  UNL1        0.0026
      8 C           8.6127    0.5125    2.4666 C.ar    1  UNL1        0.0961
      9 N           9.4358   -0.5408    2.4928 N.ar    1  UNL1       -0.1729
     10 N          10.6478   -0.0130    2.7582 N.ar    1  UNL1       -0.2716
     11 C          10.6458    1.3548    2.9630 C.ar    1  UNL1        0.1253
     12 C          11.8529    2.0719    3.3834 C.2     1  UNL1        0.2813
     13 O          12.9263    1.4916    3.4396 O.2     1  UNL1       -0.2668
     14 N          11.6838    3.4432    3.7004 N.am    1  UNL1       -0.2017
     15 N          12.7136    4.1997    4.2252 N.2     1  UNL1       -0.1873
     16 C          12.6825    5.4912    4.0593 C.2     1  UNL1        0.0564
     17 C          13.9318    6.3120    4.1929 C.ar    1  UNL1        0.0399
     18 C          13.9063    7.4355    5.0467 C.ar    1  UNL1       -0.0042
     19 C          15.0117    8.3178    5.1344 C.ar    1  UNL1        0.1623
     20 O          14.7968    9.4442    5.9037 O.3     1  UNL1       -0.4914
     21 C          15.7970   10.4702    5.8598 C.3     1  UNL1        0.0790
     22 C          16.1967    8.0132    4.4451 C.ar    1  UNL1        0.1650
     23 O          17.2958    8.7860    4.6822 O.3     1  UNL1       -0.4913
     24 C          18.5314    8.4953    4.0561 C.3     1  UNL1        0.0790
     25 C          16.1992    6.9343    3.5658 C.ar    1  UNL1        0.0260
     26 C          15.0820    6.0927    3.4058 C.ar    1  UNL1        0.1324
     27 O          15.3268    5.1878    2.4003 O.3     1  UNL1       -0.4943
     28 C          14.4051    4.1381    2.2063 C.3     1  UNL1        0.0788
     29 C           9.3252    1.7249    2.7463 C.ar    1  UNL1        0.0070
     30 C           8.6683    3.0465    2.8259 C.3     1  UNL1       -0.0355
     31 C           6.6263    1.0809    1.0864 C.ar    1  UNL1       -0.0490
     32 C           5.2633    0.9786    0.7812 C.ar    1  UNL1       -0.0193
     33 H           0.7233   -0.0238   -1.0196 H       1  UNL1        0.0262
     34 H           0.7254    0.9693    0.4530 H       1  UNL1        0.0262
     35 H           0.7087   -0.7863    0.5898 H       1  UNL1        0.0262
     36 H           2.9665    0.9139   -0.5532 H       1  UNL1        0.0694
     37 H           2.9910   -0.8736   -0.4796 H       1  UNL1        0.0694
     38 H           4.3426   -1.1810    3.2284 H       1  UNL1        0.0654
     39 H           6.7189   -0.8747    3.8630 H       1  UNL1        0.0625
     40 H          11.4380   -0.6509    2.8242 H       1  UNL1        0.1891
     41 H          10.9879    3.9543    3.1940 H       1  UNL1        0.1776
     42 H          11.7858    6.0357    3.7014 H       1  UNL1        0.0852
     43 H          13.0317    7.6352    5.6640 H       1  UNL1        0.0663
     44 H          15.4308   11.3581    6.3817 H       1  UNL1        0.0660
     45 H          16.0254   10.7832    4.8312 H       1  UNL1        0.0660
     46 H          16.6962   10.1487    6.3977 H       1  UNL1        0.0660
     47 H          19.2637    9.2153    4.4378 H       1  UNL1        0.0660
     48 H          18.4564    8.6386    2.9754 H       1  UNL1        0.0660
     49 H          18.8843    7.4933    4.3147 H       1  UNL1        0.0660
     50 H          17.0748    6.7236    2.9581 H       1  UNL1        0.0692
     51 H          14.7102    3.4754    1.3971 H       1  UNL1        0.0660
     52 H          13.4359    4.5516    1.9059 H       1  UNL1        0.0660
     53 H          14.4110    3.5103    3.0968 H       1  UNL1        0.0660
     54 H           9.3160    3.8756    3.0620 H       1  UNL1        0.0279
     55 H           7.9108    3.0311    3.6113 H       1  UNL1        0.0279
     56 H           8.2217    3.2999    1.8632 H       1  UNL1        0.0279
     57 H           7.2495    1.7231    0.4696 H       1  UNL1        0.0625
     58 H           4.8793    1.5669   -0.0440 H       1  UNL1        0.0654
@<TRIPOS>BOND
     1     1     2    1
     2     2     3    1
     3     3     4    1
     4     4     5   ar
     5     5     6   ar
     6     6     7   ar
     7     7     8    1
     8     8     9   ar
     9     9    10   ar
    10    10    11   ar
    11    11    12    1
    12    12    13    2
    13    12    14   am
    14    14    15    1
    15    15    16    2
    16    16    17    1
    17    17    18   ar
    18    18    19   ar
    19    19    20    1
    20    20    21    1
    21    19    22   ar
    22    22    23    1
    23    23    24    1
    24    22    25   ar
    25    25    26   ar
    26    17    26   ar
    27    26    27    1
    28    27    28    1
    29    11    29   ar
    30     8    29   ar
    31    29    30    1
    32     7    31   ar
    33    31    32   ar
    34     4    32   ar
    35     1    33    1
    36     1    34    1
    37     1    35    1
    38     2    36    1
    39     2    37    1
    40     5    38    1
    41     6    39    1
    42    10    40    1
    43    14    41    1
    44    16    42    1
    45    18    43    1
    46    21    44    1
    47    21    45    1
    48    21    46    1
    49    24    47    1
    50    24    48    1
    51    24    49    1
    52    25    50    1
    53    28    51    1
    54    28    52    1
    55    28    53    1
    56    30    54    1
    57    30    55    1
    58    30    56    1
    59    31    57    1
    60    32    58    1
