@<TRIPOS>MOLECULE
*****
 53 54 0 0 0
SMALL
GASTEIGER

@<TRIPOS>ATOM
      1 C           1.8516    1.4991   -0.0138 C.3     1  UNL1       -0.0395
      2 C           0.5733    0.7036    0.0040 C.ar    1  UNL1       -0.0475
      3 C          -0.6570    1.3772    0.0223 C.ar    1  UNL1       -0.0579
      4 C          -1.8679    0.6742    0.0147 C.ar    1  UNL1       -0.0510
      5 C          -1.8726   -0.7222   -0.0216 C.ar    1  UNL1        0.0177
      6 C          -3.1478   -1.5199   -0.0748 C.2     1  UNL1        0.1636
      7 O          -3.0877   -2.7487   -0.1132 O.2     1  UNL1       -0.2920
      8 C          -4.4875   -0.7870   -0.0907 C.3     1  UNL1        0.0187
      9 C          -5.7028   -1.7373   -0.1563 C.3     1  UNL1        0.0324
     10 C          -7.0395   -0.9788   -0.1658 C.2     1  UNL1        0.2295
     11 O          -7.1022    0.2514   -0.1263 O.2     1  UNL1       -0.2743
     12 N          -8.1880   -1.7623   -0.2220 N.am    1  UNL1       -0.2332
     13 N          -9.4802   -1.1318   -0.2341 N.am    1  UNL1       -0.2182
     14 C         -10.6258   -1.9080   -0.2893 C.2     1  UNL1        0.3160
     15 O         -10.5979   -3.1387   -0.3300 O.2     1  UNL1       -0.2513
     16 N         -11.8172   -1.2016   -0.2958 N.am    1  UNL1       -0.2982
     17 C         -13.1072   -1.9004   -0.3516 C.3     1  UNL1        0.0147
     18 C         -14.3116   -0.9597   -0.3515 C.3     1  UNL1       -0.0191
     19 C         -15.6678   -1.6810   -0.4108 C.3     1  UNL1        0.0296
     20 N         -16.8201   -0.7415   -0.4098 N.ar    1  UNL1       -0.2957
     21 C         -16.7665    0.6519   -0.4091 C.ar    1  UNL1        0.0732
     22 C         -18.0502    1.1104   -0.4169 C.ar    1  UNL1        0.1870
     23 N         -18.8520   -0.0024   -0.4198 N.ar    1  UNL1       -0.2011
     24 C         -18.1137   -1.1188   -0.4139 C.ar    1  UNL1        0.2463
     25 C          -0.6418   -1.4009   -0.0175 C.ar    1  UNL1       -0.0481
     26 C           0.5829   -0.7039    0.0009 C.ar    1  UNL1       -0.0469
     27 C           1.8767   -1.4747    0.0212 C.3     1  UNL1       -0.0394
     28 H           1.6543    2.5765   -0.0255 H       1  UNL1        0.0278
     29 H           2.4333    1.2644   -0.9114 H       1  UNL1        0.0278
     30 H           2.4498    1.2818    0.8764 H       1  UNL1        0.0278
     31 H          -0.6804    2.4658    0.0398 H       1  UNL1        0.0620
     32 H          -2.7889    1.2480    0.0328 H       1  UNL1        0.0625
     33 H          -4.5017   -0.1227   -0.9627 H       1  UNL1        0.0350
     34 H          -4.5525   -0.1794    0.8191 H       1  UNL1        0.0350
     35 H          -5.6800   -2.4129    0.7072 H       1  UNL1        0.0363
     36 H          -5.6328   -2.3520   -1.0618 H       1  UNL1        0.0363
     37 H          -8.1805   -2.7811   -0.2560 H       1  UNL1        0.1728
     38 H          -9.4699   -0.1162   -0.1996 H       1  UNL1        0.1744
     39 H         -11.7836   -0.1919   -0.2611 H       1  UNL1        0.1503
     40 H         -13.1653   -2.5757    0.5095 H       1  UNL1        0.0463
     41 H         -13.1202   -2.5161   -1.2582 H       1  UNL1        0.0463
     42 H         -14.2353   -0.2821   -1.2106 H       1  UNL1        0.0297
     43 H         -14.2841   -0.3366    0.5507 H       1  UNL1        0.0297
     44 H         -15.7928   -2.3475    0.4515 H       1  UNL1        0.0494
     45 H         -15.7476   -2.2881   -1.3209 H       1  UNL1        0.0494
     46 H         -15.8181    1.1596   -0.4031 H       1  UNL1        0.0871
     47 H         -18.4898    2.0925   -0.4201 H       1  UNL1        0.1392
     48 H         -19.8699    0.0140   -0.4254 H       1  UNL1        0.4538
     49 H         -18.4990   -2.1328   -0.4133 H       1  UNL1        0.1600
     50 H          -0.6327   -2.4906   -0.0305 H       1  UNL1        0.0627
     51 H           1.7016   -2.5554    0.0269 H       1  UNL1        0.0278
     52 H           2.4490   -1.2306    0.9226 H       1  UNL1        0.0278
     53 H           2.4771   -1.2410   -0.8638 H       1  UNL1        0.0278
@<TRIPOS>UNITY_ATOM_ATTR
23 1
charge 1
@<TRIPOS>BOND
     1     1     2    1
     2     2     3   ar
     3     3     4   ar
     4     4     5   ar
     5     5     6    1
     6     6     7    2
     7     6     8    1
     8     8     9    1
     9     9    10    1
    10    10    11    2
    11    10    12   am
    12    12    13    1
    13    13    14   am
    14    14    15    2
    15    14    16   am
    16    16    17    1
    17    17    18    1
    18    18    19    1
    19    19    20    1
    20    20    21   ar
    21    21    22   ar
    22    22    23   ar
    23    23    24   ar
    24    20    24   ar
    25     5    25   ar
    26    25    26   ar
    27     2    26   ar
    28    26    27    1
    29     1    28    1
    30     1    29    1
    31     1    30    1
    32     3    31    1
    33     4    32    1
    34     8    33    1
    35     8    34    1
    36     9    35    1
    37     9    36    1
    38    12    37    1
    39    13    38    1
    40    16    39    1
    41    17    40    1
    42    17    41    1
    43    18    42    1
    44    18    43    1
    45    19    44    1
    46    19    45    1
    47    21    46    1
    48    22    47    1
    49    23    48    1
    50    24    49    1
    51    25    50    1
    52    27    51    1
    53    27    52    1
    54    27    53    1
