@<TRIPOS>MOLECULE
*****
 72 74 0 0 0
SMALL
GASTEIGER

@<TRIPOS>ATOM
      1 C           0.9276   -0.0606   -0.0944 C.3     1  UNL1       -0.0652
      2 C           2.4382   -0.0696   -0.1058 C.3     1  UNL1       -0.0545
      3 C           2.9657   -0.9121    1.0449 C.3     1  UNL1       -0.0376
      4 C           4.4854   -0.8911    0.9984 C.3     1  UNL1        0.0116
      5 N           5.0731   -1.5738    2.1330 N.am    1  UNL1       -0.3138
      6 C           6.2649   -2.3145    2.0586 C.2     1  UNL1        0.2345
      7 O           6.6525   -2.7268    0.9963 O.2     1  UNL1       -0.2737
      8 C           6.9581   -2.7481    3.4617 C.3     1  UNL1        0.1137
      9 C           6.2758   -4.1959    3.6194 C.3     1  UNL1        0.0363
     10 C           6.4934   -5.0569    4.8426 C.ar    1  UNL1       -0.0377
     11 C           6.6274   -6.4620    4.7318 C.ar    1  UNL1       -0.0579
     12 C           6.8992   -7.2123    5.8658 C.ar    1  UNL1       -0.0615
     13 C           7.2100   -6.5567    7.0576 C.ar    1  UNL1       -0.0617
     14 C           7.1033   -5.1722    7.1556 C.ar    1  UNL1       -0.0615
     15 C           6.6036   -4.4510    6.0867 C.ar    1  UNL1       -0.0579
     16 C           4.7511   -4.1603    3.6517 C.ar    1  UNL1       -0.0377
     17 C           4.0507   -3.0573    4.1595 C.ar    1  UNL1       -0.0579
     18 C           2.6775   -3.0185    4.0558 C.ar    1  UNL1       -0.0615
     19 C           1.9954   -4.1968    3.8012 C.ar    1  UNL1       -0.0617
     20 C           2.6893   -5.3825    3.5909 C.ar    1  UNL1       -0.0615
     21 C           4.0522   -5.3429    3.3974 C.ar    1  UNL1       -0.0579
     22 N           8.5324   -2.6801    3.4692 N.am    1  UNL1       -0.2799
     23 C           9.2517   -1.8263    2.5798 C.2     1  UNL1        0.2548
     24 O          10.4776   -1.8432    2.4441 O.2     1  UNL1       -0.2697
     25 C           8.6520   -0.9608    1.5657 C.ar    1  UNL1        0.1195
     26 C           8.9659   -1.2374    0.2150 C.ar    1  UNL1        0.1325
     27 O           9.7871   -2.2643   -0.1873 O.3     1  UNL1       -0.5059
     28 C           8.3214   -0.5628   -0.8132 C.ar    1  UNL1       -0.0192
     29 C           7.3205    0.3498   -0.5042 C.ar    1  UNL1       -0.0548
     30 C           7.0783    0.7040    0.8269 C.ar    1  UNL1       -0.0192
     31 C           7.7360    0.0471    1.8682 C.ar    1  UNL1        0.1325
     32 O           7.3074    0.2526    3.1551 O.3     1  UNL1       -0.5059
     33 C           9.3755   -3.3125    4.6109 C.3     1  UNL1        0.0301
     34 C           9.1040   -2.6748    6.0086 C.3     1  UNL1       -0.0440
     35 C           9.3898   -4.8398    4.5168 C.3     1  UNL1       -0.0440
     36 C          10.9117   -3.1509    4.4975 C.3     1  UNL1       -0.0440
     37 H           0.5493    0.5325   -0.9300 H       1  UNL1        0.0230
     38 H           0.5547    0.3714    0.8396 H       1  UNL1        0.0230
     39 H           0.5407   -1.0802   -0.1820 H       1  UNL1        0.0230
     40 H           2.8149    0.9577   -0.0209 H       1  UNL1        0.0263
     41 H           2.8069   -0.4714   -1.0567 H       1  UNL1        0.0263
     42 H           2.5905   -1.9402    0.9824 H       1  UNL1        0.0280
     43 H           2.6146   -0.4995    2.0008 H       1  UNL1        0.0280
     44 H           4.7369    0.1585    1.1036 H       1  UNL1        0.0462
     45 H           4.8680   -1.2978    0.0616 H       1  UNL1        0.0462
     46 H           4.3657   -2.2523    2.3363 H       1  UNL1        0.1487
     47 H           6.6545   -2.0754    4.2740 H       1  UNL1        0.0606
     48 H           6.6313   -4.7446    2.7291 H       1  UNL1        0.0420
     49 H           6.6242   -6.9460    3.7541 H       1  UNL1        0.0620
     50 H           6.9434   -8.2933    5.7995 H       1  UNL1        0.0618
     51 H           7.5626   -7.1236    7.9111 H       1  UNL1        0.0618
     52 H           7.4528   -4.6409    8.0353 H       1  UNL1        0.0618
     53 H           6.4449   -3.3839    6.1552 H       1  UNL1        0.0620
     54 H           4.5634   -2.1470    4.4666 H       1  UNL1        0.0620
     55 H           2.1630   -2.0729    4.1859 H       1  UNL1        0.0618
     56 H           0.9148   -4.1997    3.8065 H       1  UNL1        0.0618
     57 H           2.1875   -6.3421    3.5820 H       1  UNL1        0.0618
     58 H           4.5813   -6.2673    3.1789 H       1  UNL1        0.0620
     59 H          10.0983   -2.7394    0.6079 H       1  UNL1        0.2922
     60 H           8.5506   -0.8084   -1.8452 H       1  UNL1        0.0654
     61 H           6.6876    0.7337   -1.2998 H       1  UNL1        0.0620
     62 H           6.2791    1.4067    1.0421 H       1  UNL1        0.0654
     63 H           6.3395    0.3807    3.1211 H       1  UNL1        0.2922
     64 H           8.0772   -2.5286    6.3203 H       1  UNL1        0.0250
     65 H           9.4977   -1.6526    6.0515 H       1  UNL1        0.0250
     66 H           9.5921   -3.2549    6.8049 H       1  UNL1        0.0250
     67 H           8.4737   -5.2617    4.7469 H       1  UNL1        0.0250
     68 H          10.0202   -5.3416    5.2577 H       1  UNL1        0.0250
     69 H           9.5875   -5.2068    3.5045 H       1  UNL1        0.0250
     70 H          11.2209   -2.1094    4.5799 H       1  UNL1        0.0250
     71 H          11.2683   -3.6033    3.5649 H       1  UNL1        0.0250
     72 H          11.4157   -3.6964    5.3071 H       1  UNL1        0.0250
@<TRIPOS>BOND
     1     1     2    1
     2     2     3    1
     3     3     4    1
     4     4     5    1
     5     5     6   am
     6     6     7    2
     7     6     8    1
     8     8     9    1
     9     9    10    1
    10    10    11   ar
    11    11    12   ar
    12    12    13   ar
    13    13    14   ar
    14    14    15   ar
    15    10    15   ar
    16     9    16    1
    17    16    17   ar
    18    17    18   ar
    19    18    19   ar
    20    19    20   ar
    21    20    21   ar
    22    16    21   ar
    23     8    22    1
    24    22    23   am
    25    23    24    2
    26    23    25    1
    27    25    26   ar
    28    26    27    1
    29    26    28   ar
    30    28    29   ar
    31    29    30   ar
    32    30    31   ar
    33    25    31   ar
    34    31    32    1
    35    22    33    1
    36    33    34    1
    37    33    35    1
    38    33    36    1
    39     1    37    1
    40     1    38    1
    41     1    39    1
    42     2    40    1
    43     2    41    1
    44     3    42    1
    45     3    43    1
    46     4    44    1
    47     4    45    1
    48     5    46    1
    49     8    47    1
    50     9    48    1
    51    11    49    1
    52    12    50    1
    53    13    51    1
    54    14    52    1
    55    15    53    1
    56    17    54    1
    57    18    55    1
    58    19    56    1
    59    20    57    1
    60    21    58    1
    61    27    59    1
    62    28    60    1
    63    29    61    1
    64    30    62    1
    65    32    63    1
    66    34    64    1
    67    34    65    1
    68    34    66    1
    69    35    67    1
    70    35    68    1
    71    35    69    1
    72    36    70    1
    73    36    71    1
    74    36    72    1
