@<TRIPOS>MOLECULE
*****
 52 56 0 0 0
SMALL
GASTEIGER

@<TRIPOS>ATOM
      1 C           1.0344   -0.2398   -0.0011 C.3     1  UNL1       -0.0469
      2 C           2.5598   -0.2726    0.0082 C.3     1  UNL1        0.0258
      3 N           3.0805    0.0543    1.3140 N.ar    1  UNL1       -0.2864
      4 C           3.1789    1.3444    1.8570 C.ar    1  UNL1        0.1727
      5 S           2.7525    2.8162    0.9247 S.3     1  UNL1       -0.0783
      6 C           2.2662    2.4905   -0.7985 C.3     1  UNL1        0.0779
      7 C           1.7405    3.6780   -1.5482 C.2     1  UNL1        0.2275
      8 O           1.8137    4.8195   -1.0971 O.2     1  UNL1       -0.2746
      9 N           1.1590    3.3613   -2.8077 N.am    1  UNL1       -0.2847
     10 C           1.0422    4.4003   -3.7379 C.ar    1  UNL1        0.0371
     11 C          -0.0067    4.6909   -4.6134 C.ar    1  UNL1       -0.0368
     12 C          -0.0676    6.0401   -5.0798 C.ar    1  UNL1       -0.0144
     13 C           1.1187    6.7578   -5.0121 C.ar    1  UNL1        0.1663
     14 C           2.2267    6.0131   -4.8442 C.ar    1  UNL1        0.1680
     15 C           2.1553    5.1774   -3.8086 C.ar    1  UNL1        0.0051
     16 O           3.3951    6.6180   -5.1294 O.3     1  UNL1       -0.4525
     17 C           2.9703    7.8604   -4.6052 C.3     1  UNL1        0.2332
     18 O           1.5437    8.0668   -4.9809 O.3     1  UNL1       -0.4526
     19 N           3.5775    1.5995    3.0830 N.ar    1  UNL1       -0.2209
     20 C           3.9268    0.4830    3.8660 C.ar    1  UNL1        0.1043
     21 C           4.3993    0.3955    5.2099 C.ar    1  UNL1        0.0257
     22 C           4.6399    1.4308    6.1944 C.ar    1  UNL1       -0.0144
     23 C           5.9374    1.7469    6.6096 C.ar    1  UNL1       -0.0539
     24 C           6.1706    2.9643    7.2517 C.ar    1  UNL1       -0.0612
     25 C           5.0985    3.7242    7.7165 C.ar    1  UNL1       -0.0617
     26 C           3.7933    3.3048    7.4709 C.ar    1  UNL1       -0.0612
     27 C           3.5672    2.2009    6.6498 C.ar    1  UNL1       -0.0539
     28 C           4.5907   -0.9537    5.4728 C.ar    1  UNL1        0.0121
     29 N           4.2529   -1.6586    4.3417 N.ar    1  UNL1       -0.3546
     30 C           3.8556   -0.7768    3.3753 C.ar    1  UNL1        0.1310
     31 C           3.4204   -1.0944    2.0574 C.ar    1  UNL1        0.2787
     32 O           3.3512   -2.2233    1.6502 O.2     1  UNL1       -0.2653
     33 H           0.6654   -0.2840   -1.0309 H       1  UNL1        0.0247
     34 H           0.6173    0.6561    0.4774 H       1  UNL1        0.0247
     35 H           0.6254   -1.0786    0.5621 H       1  UNL1        0.0247
     36 H           3.0445    0.3729   -0.7115 H       1  UNL1        0.0491
     37 H           2.8896   -1.2560   -0.3342 H       1  UNL1        0.0491
     38 H           1.4032    1.8444   -0.8490 H       1  UNL1        0.0475
     39 H           3.1106    2.1211   -1.3884 H       1  UNL1        0.0475
     40 H           1.0929    2.4192   -3.1775 H       1  UNL1        0.1548
     41 H          -0.7956    3.9754   -4.8213 H       1  UNL1        0.0637
     42 H          -1.0179    6.4290   -5.4421 H       1  UNL1        0.0656
     43 H           2.9797    5.1680   -3.1137 H       1  UNL1        0.0674
     44 H           3.6808    8.5984   -4.9798 H       1  UNL1        0.1166
     45 H           3.1176    7.7819   -3.5058 H       1  UNL1        0.1166
     46 H           6.7755    1.0916    6.3890 H       1  UNL1        0.0624
     47 H           7.1869    3.3347    7.3584 H       1  UNL1        0.0618
     48 H           5.2798    4.6458    8.2625 H       1  UNL1        0.0618
     49 H           2.9528    3.8686    7.8634 H       1  UNL1        0.0618
     50 H           2.5545    1.9524    6.3452 H       1  UNL1        0.0624
     51 H           4.9214   -1.4761    6.3627 H       1  UNL1        0.0814
     52 H           4.2823   -2.6645    4.2311 H       1  UNL1        0.1656
@<TRIPOS>BOND
     1     1     2    1
     2     2     3    1
     3     3     4   ar
     4     4     5    1
     5     5     6    1
     6     6     7    1
     7     7     8    2
     8     7     9   am
     9     9    10    1
    10    10    11   ar
    11    11    12   ar
    12    12    13   ar
    13    13    14   ar
    14    14    15   ar
    15    10    15   ar
    16    14    16    1
    17    16    17    1
    18    17    18    1
    19    13    18    1
    20     4    19   ar
    21    19    20   ar
    22    20    21   ar
    23    21    22    1
    24    22    23   ar
    25    23    24   ar
    26    24    25   ar
    27    25    26   ar
    28    26    27   ar
    29    22    27   ar
    30    21    28   ar
    31    28    29   ar
    32    29    30   ar
    33    20    30   ar
    34    30    31   ar
    35     3    31   ar
    36    31    32    2
    37     1    33    1
    38     1    34    1
    39     1    35    1
    40     2    36    1
    41     2    37    1
    42     6    38    1
    43     6    39    1
    44     9    40    1
    45    11    41    1
    46    12    42    1
    47    15    43    1
    48    17    44    1
    49    17    45    1
    50    23    46    1
    51    24    47    1
    52    25    48    1
    53    26    49    1
    54    27    50    1
    55    28    51    1
    56    29    52    1
