@<TRIPOS>MOLECULE
*****
 40 42 0 0 0
SMALL
GASTEIGER

@<TRIPOS>ATOM
      1 O          -1.7061    0.1256    0.6687 O.3     1  UNL1       -0.3899
      2 C          -0.8809    0.0392   -0.4963 C.3     1  UNL1        0.0752
      3 C          -0.0740   -1.2396   -0.3551 C.3     1  UNL1       -0.0066
      4 C           1.1023   -0.8514    0.5888 C.3     1  UNL1        0.0248
      5 N           2.4322   -1.4986    0.4340 N.pl3   1  UNL1       -0.3408
      6 C           2.6583   -2.8342    0.1230 C.ar    1  UNL1        0.0273
      7 C           3.8162   -3.4270    0.6333 C.ar    1  UNL1       -0.0408
      8 C           4.1609   -4.7431    0.3099 C.ar    1  UNL1       -0.0600
      9 C           3.3656   -5.4850   -0.5587 C.ar    1  UNL1       -0.0616
     10 C           2.2619   -4.8910   -1.1447 C.ar    1  UNL1       -0.0600
     11 C           1.9210   -3.5842   -0.7987 C.ar    1  UNL1       -0.0408
     12 C           1.2402    0.7025    0.4628 C.3     1  UNL1       -0.0137
     13 C           0.1759    1.1678   -0.5498 C.3     1  UNL1        0.0483
     14 N           0.6904    1.5072   -1.9290 N.pl3   1  UNL1       -0.3384
     15 C           1.4839    0.7606   -2.7823 C.ar    1  UNL1        0.0274
     16 C           2.0037   -0.4493   -2.4206 C.ar    1  UNL1       -0.0408
     17 C           2.6816   -1.3976   -3.1609 C.ar    1  UNL1       -0.0600
     18 C           2.9386   -1.0968   -4.4648 C.ar    1  UNL1       -0.0616
     19 C           2.5493    0.1630   -4.9069 C.ar    1  UNL1       -0.0600
     20 C           1.8135    1.0798   -4.0938 C.ar    1  UNL1       -0.0408
     21 H          -2.2215   -0.7035    0.7009 H       1  UNL1        0.2099
     22 H          -1.5361    0.0477   -1.3726 H       1  UNL1        0.0612
     23 H           0.1474   -1.5335   -1.3803 H       1  UNL1        0.0309
     24 H          -0.6301   -2.0845    0.0607 H       1  UNL1        0.0309
     25 H           0.7998   -1.0941    1.6107 H       1  UNL1        0.0499
     26 H           3.1418   -0.9116   -0.0215 H       1  UNL1        0.1463
     27 H           4.4495   -2.8616    1.3138 H       1  UNL1        0.0636
     28 H           5.0536   -5.1861    0.7393 H       1  UNL1        0.0618
     29 H           3.6098   -6.5160   -0.7905 H       1  UNL1        0.0618
     30 H           1.6688   -5.4186   -1.8873 H       1  UNL1        0.0618
     31 H           1.1021   -3.1667   -1.3620 H       1  UNL1        0.0636
     32 H           2.2403    1.0630    0.1969 H       1  UNL1        0.0302
     33 H           1.0124    1.1258    1.4507 H       1  UNL1        0.0302
     34 H          -0.2788    2.0902   -0.1602 H       1  UNL1        0.0523
     35 H           0.5496    2.4776   -2.1942 H       1  UNL1        0.1464
     36 H           1.8867   -0.7122   -1.4145 H       1  UNL1        0.0636
     37 H           3.0091   -2.3206   -2.7070 H       1  UNL1        0.0618
     38 H           3.4637   -1.8310   -5.0589 H       1  UNL1        0.0618
     39 H           2.8437    0.4447   -5.9134 H       1  UNL1        0.0618
     40 H           1.5333    2.0360   -4.5128 H       1  UNL1        0.0636
@<TRIPOS>BOND
     1     1     2    1
     2     2     3    1
     3     3     4    1
     4     4     5    1
     5     5     6    1
     6     6     7   ar
     7     7     8   ar
     8     8     9   ar
     9     9    10   ar
    10    10    11   ar
    11     6    11   ar
    12     4    12    1
    13    12    13    1
    14     2    13    1
    15    14    15    1
    16    15    16   ar
    17    16    17   ar
    18    17    18   ar
    19    18    19   ar
    20    19    20   ar
    21    15    20   ar
    22    13    14    1
    23     1    21    1
    24     2    22    1
    25     3    23    1
    26     3    24    1
    27     4    25    1
    28     5    26    1
    29     7    27    1
    30     8    28    1
    31     9    29    1
    32    10    30    1
    33    11    31    1
    34    12    32    1
    35    12    33    1
    36    13    34    1
    37    14    35    1
    38    16    36    1
    39    17    37    1
    40    18    38    1
    41    19    39    1
    42    20    40    1
