REMARK  5 active torsions:
REMARK  status: ('A' for Active; 'I' for Inactive)
REMARK    1  A    between atoms: C_5  and  O_6 
REMARK    2  A    between atoms: O_6  and  C_7 
REMARK    3  A    between atoms: C_7  and  C_9 
REMARK       I    between atoms: C_9  and  N_11 
REMARK    4  A    between atoms: N_11  and  N_12 
REMARK       I    between atoms: N_12  and  C_13 
REMARK       I    between atoms: C_13  and  N_15 
REMARK    5  A    between atoms: N_15  and  C_16 
ROOT
ATOM      1  C   UNL d   1      -5.530   0.942  -0.088  0.00  0.00     0.265 C 
ATOM      2  O   UNL d   1      -5.987  -0.204  -0.078  0.00  0.00    -0.269 OA
ATOM      3  N   UNL d   1      -6.388   2.045  -0.084  0.00  0.00    -0.264 N 
ATOM      4  H   UNL d   1      -6.083   3.018  -0.091  0.00  0.00     0.190 HD
ENDROOT
BRANCH   1   5
ATOM      5  C   UNL d   1      -3.980   1.251  -0.098  0.00  0.00     0.218 C 
ATOM      6  C   UNL d   1      -3.661   2.057  -1.366  0.00  0.00     0.050 C 
BRANCH   5   7
ATOM      7  O   UNL d   1      -3.212   0.024  -0.049  0.00  0.00    -0.337 OA
BRANCH   7   8
ATOM      8  C   UNL d   1      -1.840   0.069   0.040  0.00  0.00     0.070 A 
ATOM      9  C   UNL d   1      -1.161  -1.157   0.005  0.00  0.00     0.037 A 
ATOM     10  C   UNL d   1       0.245  -1.204   0.005  0.00  0.00     0.009 A 
ATOM     11  C   UNL d   1       0.994  -0.022   0.012  0.00  0.00    -0.062 A 
ATOM     12  C   UNL d   1       2.492  -0.022  -0.018  0.00  0.00     0.048 C 
ATOM     13  C   UNL d   1       0.317   1.195   0.062  0.00  0.00     0.009 A 
ATOM     14  C   UNL d   1      -1.077   1.232   0.128  0.00  0.00     0.037 A 
ENDBRANCH   7   8
ENDBRANCH   5   7
ENDBRANCH   1   5
BRANCH   3  15
ATOM     15  N   UNL d   1      -7.814   1.853  -0.132  0.00  0.00    -0.249 N 
ATOM     16  C   UNL d   1      -8.643   2.963  -0.118  0.00  0.00     0.335 C 
ATOM     17  O   UNL d   1      -8.180   4.105  -0.058  0.00  0.00    -0.246 OA
ATOM     18  N   UNL d   1      -9.998   2.695  -0.209  0.00  0.00    -0.338 N 
ATOM     19  H   UNL d   1     -10.313   1.735  -0.189  0.00  0.00     0.164 HD
ATOM     20  H   UNL d   1      -8.139   0.891  -0.143  0.00  0.00     0.192 HD
BRANCH  18  21
ATOM     21  C   UNL d   1     -11.018   3.764  -0.231  0.00  0.00     0.078 C 
ATOM     22  C   UNL d   1     -10.860   4.661  -1.462  0.00  0.00     0.032 C 
ATOM     23  C   UNL d   1     -12.458   3.226  -0.222  0.00  0.00     0.032 C 
ENDBRANCH  18  21
ENDBRANCH   3  15
TORSDOF 5
