@<TRIPOS>MOLECULE
*****
 66 69 0 0 0
SMALL
GASTEIGER

@<TRIPOS>ATOM
      1 C           2.4527   -0.3911   -0.0137 C.3     1  UNL1       -0.0380
      2 C           0.9975   -0.0735   -0.0046 C.ar    1  UNL1       -0.0292
      3 C           0.2003   -1.2374    0.0043 C.ar    1  UNL1       -0.0571
      4 C          -1.1739   -1.1649    0.0005 C.ar    1  UNL1       -0.0614
      5 C          -1.7666    0.0900   -0.0058 C.ar    1  UNL1       -0.0600
      6 C          -0.9789    1.2731   -0.0033 C.ar    1  UNL1       -0.0402
      7 C           0.4370    1.2326   -0.0044 C.ar    1  UNL1        0.0377
      8 N           1.1913    2.4996   -0.0300 N.am    1  UNL1       -0.2690
      9 C           2.5651    2.6510    0.0187 C.2     1  UNL1        0.3081
     10 O           3.3711    1.7291    0.2014 O.2     1  UNL1       -0.2522
     11 N           3.1567    3.8911   -0.1176 N.am    1  UNL1       -0.2692
     12 C           4.6228    3.9119   -0.0981 C.ar    1  UNL1        0.0356
     13 C           5.3568    3.0268   -0.9126 C.ar    1  UNL1       -0.0386
     14 C           6.7563    3.0044   -0.9178 C.ar    1  UNL1       -0.0382
     15 C           7.5070    3.8686   -0.1148 C.ar    1  UNL1        0.0420
     16 N           8.8851    3.7852   -0.2136 N.pl3   1  UNL1       -0.3293
     17 C           9.6756    4.0898   -1.4047 C.3     1  UNL1        0.0122
     18 C          10.5516    2.8901   -1.8096 C.3     1  UNL1       -0.0372
     19 C          11.3812    2.3597   -0.6559 C.3     1  UNL1       -0.0502
     20 C          10.4017    1.9403    0.4181 C.3     1  UNL1       -0.0372
     21 C           9.6154    3.1533    0.8572 C.3     1  UNL1        0.0122
     22 C           6.7901    4.7157    0.7882 C.ar    1  UNL1        0.0594
     23 C           7.4523    5.6465    1.8064 C.2     1  UNL1        0.2459
     24 O           6.7850    6.2109    2.6634 O.2     1  UNL1       -0.2701
     25 N           8.8209    5.8226    1.7121 N.am    1  UNL1       -0.3110
     26 C           9.6708    6.5127    2.6864 C.3     1  UNL1        0.0159
     27 C          11.1996    6.2201    2.5599 C.3     1  UNL1       -0.0120
     28 C          11.6728    4.7975    2.8445 C.ar    1  UNL1       -0.0459
     29 C          12.9539    4.3672    2.4471 C.ar    1  UNL1       -0.0585
     30 C          13.2957    3.0063    2.4776 C.ar    1  UNL1       -0.0615
     31 C          12.3733    2.0625    2.9187 C.ar    1  UNL1       -0.0617
     32 C          11.1183    2.4801    3.3600 C.ar    1  UNL1       -0.0615
     33 C          10.7932    3.8395    3.3717 C.ar    1  UNL1       -0.0585
     34 C           5.3540    4.7270    0.7738 C.ar    1  UNL1       -0.0265
     35 H           2.7170   -1.4467   -0.0378 H       1  UNL1        0.0278
     36 H           2.8569   -0.0462    0.9436 H       1  UNL1        0.0278
     37 H           2.8720    0.0298   -0.9349 H       1  UNL1        0.0278
     38 H           0.6859   -2.2129    0.0087 H       1  UNL1        0.0621
     39 H          -1.7533   -2.0844    0.0002 H       1  UNL1        0.0618
     40 H          -2.8542    0.1373   -0.0153 H       1  UNL1        0.0618
     41 H          -1.5255    2.2137   -0.0031 H       1  UNL1        0.0636
     42 H           0.6248    3.3391   -0.0387 H       1  UNL1        0.1564
     43 H           2.6755    4.6860    0.2779 H       1  UNL1        0.1564
     44 H           4.8504    2.2991   -1.5457 H       1  UNL1        0.0637
     45 H           7.2666    2.2708   -1.5406 H       1  UNL1        0.0637
     46 H          10.3331    4.9311   -1.1415 H       1  UNL1        0.0464
     47 H           9.0499    4.4131   -2.2383 H       1  UNL1        0.0464
     48 H          11.2186    3.1618   -2.6292 H       1  UNL1        0.0280
     49 H           9.9043    2.0690   -2.1329 H       1  UNL1        0.0280
     50 H          12.0770    3.1315   -0.2893 H       1  UNL1        0.0266
     51 H          11.9986    1.4992   -0.9304 H       1  UNL1        0.0266
     52 H          11.0118    1.5193    1.1957 H       1  UNL1        0.0280
     53 H           9.7331    1.1246    0.1478 H       1  UNL1        0.0280
     54 H          10.3619    3.9030    1.0859 H       1  UNL1        0.0464
     55 H           8.9763    2.9539    1.7204 H       1  UNL1        0.0464
     56 H           9.2390    5.4363    0.8762 H       1  UNL1        0.1490
     57 H           9.3304    6.2570    3.6958 H       1  UNL1        0.0465
     58 H           9.4915    7.5830    2.5473 H       1  UNL1        0.0465
     59 H          11.7344    6.8611    3.2698 H       1  UNL1        0.0328
     60 H          11.5215    6.5163    1.5497 H       1  UNL1        0.0328
     61 H          13.6741    5.0691    2.0320 H       1  UNL1        0.0620
     62 H          14.2386    2.6636    2.0572 H       1  UNL1        0.0618
     63 H          12.5485    1.0028    2.7271 H       1  UNL1        0.0618
     64 H          10.3024    1.7536    3.4261 H       1  UNL1        0.0618
     65 H           9.7463    4.0939    3.5368 H       1  UNL1        0.0620
     66 H           4.8248    5.3367    1.5026 H       1  UNL1        0.0644
@<TRIPOS>BOND
     1     1     2    1
     2     2     3   ar
     3     3     4   ar
     4     4     5   ar
     5     5     6   ar
     6     6     7   ar
     7     2     7   ar
     8     7     8    1
     9     8     9   am
    10     9    10    2
    11     9    11   am
    12    11    12    1
    13    12    13   ar
    14    13    14   ar
    15    14    15   ar
    16    15    16    1
    17    16    17    1
    18    17    18    1
    19    18    19    1
    20    19    20    1
    21    20    21    1
    22    16    21    1
    23    15    22   ar
    24    22    23    1
    25    23    24    2
    26    23    25   am
    27    25    26    1
    28    26    27    1
    29    27    28    1
    30    28    29   ar
    31    29    30   ar
    32    30    31   ar
    33    31    32   ar
    34    32    33   ar
    35    28    33   ar
    36    22    34   ar
    37    12    34   ar
    38     1    35    1
    39     1    36    1
    40     1    37    1
    41     3    38    1
    42     4    39    1
    43     5    40    1
    44     6    41    1
    45     8    42    1
    46    11    43    1
    47    13    44    1
    48    14    45    1
    49    17    46    1
    50    17    47    1
    51    18    48    1
    52    18    49    1
    53    19    50    1
    54    19    51    1
    55    20    52    1
    56    20    53    1
    57    21    54    1
    58    21    55    1
    59    25    56    1
    60    26    57    1
    61    26    58    1
    62    27    59    1
    63    27    60    1
    64    29    61    1
    65    30    62    1
    66    31    63    1
    67    32    64    1
    68    33    65    1
    69    34    66    1
