REMARK  9 active torsions:
REMARK  status: ('A' for Active; 'I' for Inactive)
REMARK    1  A    between atoms: C_2  and  C_4 
REMARK    2  A    between atoms: C_9  and  N_10 
REMARK    3  A    between atoms: N_10  and  C_11 
REMARK    4  A    between atoms: C_11  and  N_13 
REMARK    5  A    between atoms: N_13  and  N_14 
REMARK       I    between atoms: N_14  and  C_15 
REMARK    6  A    between atoms: C_15  and  C_17 
REMARK    7  A    between atoms: C_17  and  C_18 
REMARK    8  A    between atoms: C_18  and  N_19 
REMARK    9  A    between atoms: N_19  and  C_20 
ROOT
ATOM      1  N   UNL d   1       4.375   2.337   2.522  0.00  0.00    -0.274 N 
ATOM      2  H   UNL d   1       4.717   2.389   3.481  0.00  0.00     0.189 HD
ENDROOT
BRANCH   1   3
ATOM      3  C   UNL d   1       4.854   1.292   1.651  0.00  0.00     0.191 C 
ATOM      4  S   UNL d   1       5.397   1.702   0.074  0.00  0.00    -0.039 SA
BRANCH   3   5
ATOM      5  N   UNL d   1       4.473  -0.046   2.204  0.00  0.00    -0.332 N 
ATOM      6  H   UNL d   1       4.601  -0.129   3.206  0.00  0.00     0.168 HD
BRANCH   5   7
ATOM      7  C   UNL d   1       3.821  -1.292   1.612  0.00  0.00     0.041 C 
ATOM      8  C   UNL d   1       3.967  -2.531   2.297  0.00  0.00     0.030 C 
ATOM      9  C   UNL d   1       3.515  -3.771   1.749  0.00  0.00     0.002 C 
ATOM     10  C   UNL d   1       2.890  -3.819   0.510  0.00  0.00     0.001 C 
ATOM     11  C   UNL d   1       2.636  -2.623  -0.133  0.00  0.00     0.010 C 
ATOM     12  C   UNL d   1       2.942  -1.376   0.477  0.00  0.00    -0.028 C 
BRANCH  12  13
ATOM     13  C   UNL d   1       2.108  -0.226  -0.092  0.00  0.00     0.013 C 
ATOM     14  C   UNL d   1       0.601  -0.296  -0.138  0.00  0.00     0.015 C 
ATOM     15  C   UNL d   1       2.240   0.939   0.816  0.00  0.00     0.015 C 
ENDBRANCH  12  13
ENDBRANCH   5   7
ENDBRANCH   3   5
ENDBRANCH   1   3
BRANCH   1  16
ATOM     16  N   UNL d   1       4.003   3.649   1.980  0.00  0.00    -0.268 N 
ATOM     17  C   UNL d   1       4.493   4.796   2.573  0.00  0.00     0.237 C 
ATOM     18  O   UNL d   1       5.096   4.744   3.664  0.00  0.00    -0.272 OA
ATOM     19  H   UNL d   1       3.682   3.659   1.012  0.00  0.00     0.190 HD
BRANCH  17  20
ATOM     20  C   UNL d   1       4.245   6.106   1.825  0.00  0.00     0.119 C 
BRANCH  20  21
ATOM     21  C   UNL d   1       4.801   7.293   2.631  0.00  0.00     0.104 C 
BRANCH  21  22
ATOM     22  N   UNL d   1       4.694   8.552   1.886  0.00  0.00    -0.261 NA
ATOM     23  H   UNL d   1       3.828   8.710   1.389  0.00  0.00     0.130 HD
BRANCH  22  24
ATOM     24  C   UNL d   1       4.958   9.676   2.675  0.00  0.00     0.201 A 
ATOM     25  N   UNL d   1       4.023  10.640   2.736  0.00  0.00    -0.231 NA
ATOM     26  C   UNL d   1       4.320  11.737   3.475  0.00  0.00     0.121 A 
ATOM     27  C   UNL d   1       5.523  11.931   4.107  0.00  0.00     0.039 A 
ATOM     28  C   UNL d   1       6.420  10.907   3.954  0.00  0.00     0.121 A 
ATOM     29  N   UNL d   1       6.152   9.772   3.278  0.00  0.00    -0.231 NA
ENDBRANCH  22  24
ENDBRANCH  21  22
ENDBRANCH  20  21
ENDBRANCH  17  20
ENDBRANCH   1  16
TORSDOF 9
