@<TRIPOS>MOLECULE
*****
 37 38 0 0 0
SMALL
GASTEIGER

@<TRIPOS>ATOM
      1 C           0.9823   -0.1216   -0.0145 C.3     1  UNL1        0.0548
      2 S           2.7503   -0.0651    0.0609 S.O2    1  UNL1       -0.0298
      3 O           3.0930    1.3418   -0.0328 O.2     1  UNL1       -0.1743
      4 O           3.1488   -0.8439    1.2227 O.2     1  UNL1       -0.1743
      5 C           3.3175   -0.9313   -1.4401 C.3     1  UNL1        0.0904
      6 C           4.8339   -0.9428   -1.4532 C.ar    1  UNL1       -0.0258
      7 C           5.5630   -2.1272   -1.5964 C.ar    1  UNL1       -0.0570
      8 C           6.9527   -2.1149   -1.4326 C.ar    1  UNL1       -0.0607
      9 C           7.6322   -0.9124   -1.1872 C.ar    1  UNL1       -0.0496
     10 C           6.9266    0.2926   -1.0901 C.ar    1  UNL1        0.0385
     11 C           7.6361    1.5693   -0.7321 C.2     1  UNL1        0.2601
     12 O           8.8646    1.5820   -0.6425 O.2     1  UNL1       -0.2687
     13 N           6.8497    2.7006   -0.4881 N.am    1  UNL1       -0.2325
     14 N           7.4882    3.9444   -0.5400 N.pl3   1  UNL1       -0.2642
     15 C           6.7429    5.0857   -0.1654 C.ar    1  UNL1        0.0458
     16 C           7.2100    6.3286   -0.6251 C.ar    1  UNL1       -0.0393
     17 C           6.5500    7.5234   -0.3203 C.ar    1  UNL1       -0.0586
     18 C           5.3734    7.4937    0.4194 C.ar    1  UNL1       -0.0433
     19 C           4.8967    6.2715    0.8898 C.ar    1  UNL1        0.0428
     20 CL          3.4715    6.2504    1.8600 Cl      1  UNL1       -0.0835
     21 C           5.5724    5.0739    0.6068 C.ar    1  UNL1       -0.0210
     22 C           5.5446    0.2575   -1.2836 C.ar    1  UNL1       -0.0449
     23 H           0.6053    0.4122    0.8635 H       1  UNL1        0.0464
     24 H           0.6457   -1.1569    0.0066 H       1  UNL1        0.0464
     25 H           0.6495    0.3911   -0.9185 H       1  UNL1        0.0464
     26 H           2.9272   -0.4122   -2.3193 H       1  UNL1        0.0549
     27 H           2.9156   -1.9486   -1.3931 H       1  UNL1        0.0549
     28 H           5.0660   -3.0711   -1.8152 H       1  UNL1        0.0621
     29 H           7.5074   -3.0518   -1.4591 H       1  UNL1        0.0618
     30 H           8.7141   -0.9271   -1.0678 H       1  UNL1        0.0625
     31 H           5.8596    2.7338   -0.6966 H       1  UNL1        0.1730
     32 H           8.4470    3.9196   -0.1757 H       1  UNL1        0.1700
     33 H           8.0865    6.3623   -1.2692 H       1  UNL1        0.0636
     34 H           6.9562    8.4717   -0.6628 H       1  UNL1        0.0619
     35 H           4.8412    8.4190    0.6274 H       1  UNL1        0.0632
     36 H           5.1796    4.1464    1.0134 H       1  UNL1        0.0651
     37 H           4.9805    1.1780   -1.2648 H       1  UNL1        0.0628
@<TRIPOS>BOND
     1     1     2    1
     2     2     3    2
     3     2     4    2
     4     2     5    1
     5     5     6    1
     6     6     7   ar
     7     7     8   ar
     8     8     9   ar
     9     9    10   ar
    10    10    11    1
    11    11    12    2
    12    11    13   am
    13    13    14    1
    14    14    15    1
    15    15    16   ar
    16    16    17   ar
    17    17    18   ar
    18    18    19   ar
    19    19    20    1
    20    19    21   ar
    21    15    21   ar
    22    10    22   ar
    23     6    22   ar
    24     1    23    1
    25     1    24    1
    26     1    25    1
    27     5    26    1
    28     5    27    1
    29     7    28    1
    30     8    29    1
    31     9    30    1
    32    13    31    1
    33    14    32    1
    34    16    33    1
    35    17    34    1
    36    18    35    1
    37    21    36    1
    38    22    37    1
