REMARK  11 active torsions:
REMARK  status: ('A' for Active; 'I' for Inactive)
REMARK    1  A    between atoms: C_2  and  C_3 
REMARK    2  A    between atoms: C_3  and  C_4 
REMARK    3  A    between atoms: C_4  and  O_5 
REMARK    4  A    between atoms: O_5  and  C_6 
REMARK    5  A    between atoms: C_6  and  C_8 
REMARK    6  A    between atoms: C_11  and  N_12 
REMARK    7  A    between atoms: N_12  and  C_13 
REMARK    8  A    between atoms: C_13  and  N_15 
REMARK       I    between atoms: N_15  and  C_16 
REMARK    9  A    between atoms: C_16  and  C_18 
REMARK   10  A    between atoms: C_21  and  N_22 
REMARK   11  A    between atoms: C_27  and  N_28 
ROOT
ATOM      1  N   UNL d   1       7.966   3.177 -10.472  0.00  0.00    -0.299 N 
ATOM      2  C   UNL d   1       7.461   4.158 -11.370  0.00  0.00     0.257 C 
ATOM      3  O   UNL d   1       6.548   4.957 -11.165  0.00  0.00    -0.267 OA
ATOM      4  H   UNL d   1       8.734   2.603 -10.791  0.00  0.00     0.171 HD
ENDROOT
BRANCH   1   5
ATOM      5  C   UNL d   1       7.444   2.980  -9.168  0.00  0.00     0.179 C 
ATOM      6  S   UNL d   1       6.078   3.868  -8.715  0.00  0.00    -0.040 SA
BRANCH   5   7
ATOM      7  N   UNL d   1       8.132   2.024  -8.348  0.00  0.00    -0.333 N 
ATOM      8  H   UNL d   1       8.880   1.470  -8.756  0.00  0.00     0.168 HD
BRANCH   7   9
ATOM      9  C   UNL d   1       7.778   1.629  -6.974  0.00  0.00     0.034 A 
ATOM     10  C   UNL d   1       8.405   0.580  -6.279  0.00  0.00     0.030 A 
ATOM     11  C   UNL d   1       7.921   0.160  -4.993  0.00  0.00     0.020 A 
ATOM     12  C   UNL d   1       6.836   0.799  -4.367  0.00  0.00     0.039 A 
ATOM     13  C   UNL d   1       6.262   1.863  -5.014  0.00  0.00     0.020 A 
ATOM     14  C   UNL d   1       6.768   2.263  -6.245  0.00  0.00     0.030 A 
BRANCH  12  15
ATOM     15  C   UNL d   1       6.398   0.523  -2.980  0.00  0.00     0.293 C 
ATOM     16  O   UNL d   1       7.198   0.307  -2.072  0.00  0.00    -0.259 OA
BRANCH  15  17
ATOM     17  O   UNL d   1       5.042   0.582  -2.857  0.00  0.00    -0.318 OA
BRANCH  17  18
ATOM     18  C   UNL d   1       4.556   0.334  -1.522  0.00  0.00     0.179 C 
BRANCH  18  19
ATOM     19  C   UNL d   1       3.026   0.334  -1.501  0.00  0.00     0.026 C 
BRANCH  19  20
ATOM     20  C   UNL d   1       2.480   0.050  -0.097  0.00  0.00    -0.002 C 
ATOM     21  C   UNL d   1       0.959   0.046  -0.079  0.00  0.00     0.005 C 
ENDBRANCH  19  20
ENDBRANCH  18  19
ENDBRANCH  17  18
ENDBRANCH  15  17
ENDBRANCH  12  15
ENDBRANCH   7   9
ENDBRANCH   5   7
ENDBRANCH   1   5
BRANCH   2  22
ATOM     22  C   UNL d   1       7.987   4.329 -12.728  0.00  0.00     0.035 A 
ATOM     23  C   UNL d   1       8.066   5.627 -13.247  0.00  0.00     0.019 A 
ATOM     24  C   UNL d   1       8.319   5.833 -14.608  0.00  0.00     0.033 A 
ATOM     25  C   UNL d   1       8.541   4.768 -15.511  0.00  0.00     0.063 A 
ATOM     26  C   UNL d   1       8.384   3.462 -14.965  0.00  0.00     0.130 A 
ATOM     27  C   UNL d   1       8.104   3.255 -13.586  0.00  0.00     0.055 A 
BRANCH  25  28
ATOM     28  N   UNL d   1       8.880   5.134 -16.796  0.00  0.00    -0.379 N 
ATOM     29  C   UNL d   1       8.291   4.629 -18.029  0.00  0.00     0.123 C 
ATOM     30  C   UNL d   1       9.509   4.342 -18.903  0.00  0.00     0.021 C 
ATOM     31  C   UNL d   1      10.433   5.505 -18.572  0.00  0.00     0.021 C 
ATOM     32  C   UNL d   1      10.145   5.828 -17.095  0.00  0.00     0.123 C 
ENDBRANCH  25  28
BRANCH  26  33
ATOM     33  N   UNL d   1       8.531   2.208 -15.729  0.00  0.00    -0.113 N 
ATOM     34  O   UNL d   1       8.949   2.225 -16.886  0.00  0.00    -0.532 OA
ATOM     35  O   UNL d   1       8.255   1.151 -15.137  0.00  0.00    -0.532 OA
ENDBRANCH  26  33
ENDBRANCH   2  22
TORSDOF 11
