@<TRIPOS>MOLECULE
*****
 84 88 0 0 0
SMALL
GASTEIGER

@<TRIPOS>ATOM
      1 C           0.9000   -0.0453   -0.0053 C.3     1  UNL1       -0.0556
      2 C           2.4475    0.0299    0.0614 C.3     1  UNL1       -0.0072
      3 C           2.8018    0.2717    1.5406 C.3     1  UNL1       -0.0367
      4 C           4.2581   -0.1099    1.8100 C.3     1  UNL1        0.0107
      5 C           3.8609   -1.5278    2.0818 C.2     1  UNL1        0.1561
      6 O           3.7942   -1.9034    3.2006 O.2     1  UNL1       -0.2927
      7 C           3.1986   -2.2117    0.7563 C.2     1  UNL1       -0.0194
      8 C           3.1614   -1.3404   -0.2891 C.2     1  UNL1       -0.0601
      9 C           4.5339   -1.3515   -0.9474 C.3     1  UNL1       -0.0305
     10 C           5.0220   -0.0272   -1.4832 C.3     1  UNL1       -0.0459
     11 C           4.4873    1.1949   -0.7061 C.3     1  UNL1       -0.0337
     12 C           2.9576    1.2566   -0.6869 C.3     1  UNL1       -0.0288
     13 C           2.4713    2.5675   -0.0014 C.3     1  UNL1       -0.0486
     14 C           3.0671    3.8063   -0.6132 C.3     1  UNL1       -0.0440
     15 C           4.6392    3.8123   -0.6510 C.3     1  UNL1        0.0068
     16 C           5.2103    3.9640    0.7670 C.3     1  UNL1       -0.0563
     17 C           5.0127    2.4714   -1.1955 C.3     1  UNL1       -0.0294
     18 C           6.5329    2.5893   -1.2399 C.3     1  UNL1       -0.0463
     19 C           6.3981    3.1331   -2.6141 C.3     1  UNL1       -0.0161
     20 C           5.4061    4.5399   -1.8928 C.3     1  UNL1        0.1325
     21 O           4.1469    4.8814   -2.5814 O.3     1  UNL1       -0.3804
     22 C           5.7811    6.1137   -2.1472 C.2     1  UNL1        0.2022
     23 O           5.8328    6.5175   -3.3265 O.2     1  UNL1       -0.2907
     24 C           5.7602    7.2512   -1.0086 C.3     1  UNL1        0.1530
     25 O           5.7586    8.6590   -1.5457 O.3     1  UNL1       -0.4568
     26 C           5.9857    9.7329   -0.7078 C.2     1  UNL1        0.3079
     27 O           6.1499    9.6140    0.5036 O.2     1  UNL1       -0.2508
     28 C           6.0358   11.1130   -1.4169 C.3     1  UNL1        0.0532
     29 C           6.3916   12.2995   -0.4632 C.3     1  UNL1        0.0340
     30 C           6.4744   13.6602   -1.1782 C.2     1  UNL1        0.2135
     31 O           6.2753   13.7918   -2.3786 O.2     1  UNL1       -0.2758
     32 N           6.7945   14.7570   -0.3795 N.am    1  UNL1       -0.3152
     33 C           6.8845   16.0922   -0.9706 C.3     1  UNL1        0.0132
     34 C           7.2394   17.1863    0.0367 C.3     1  UNL1       -0.0192
     35 C           7.3410   18.5620   -0.6290 C.3     1  UNL1        0.0296
     36 N           7.7167   19.6188    0.3312 N.ar    1  UNL1       -0.2957
     37 C           7.0914   20.8557    0.4819 C.ar    1  UNL1        0.0732
     38 C           7.8065   21.5516    1.4173 C.ar    1  UNL1        0.1870
     39 N           8.8287   20.7244    1.8142 N.ar    1  UNL1       -0.2011
     40 C           8.7757   19.5636    1.1569 C.ar    1  UNL1        0.2463
     41 H           0.5220   -0.9353    0.5079 H       1  UNL1        0.0238
     42 H           0.5128   -0.0463   -1.0281 H       1  UNL1        0.0238
     43 H           0.4418    0.8041    0.5215 H       1  UNL1        0.0238
     44 H           2.0959   -0.3585    2.1075 H       1  UNL1        0.0278
     45 H           2.5415    1.2066    2.0219 H       1  UNL1        0.0278
     46 H           4.7295    0.6567    2.4243 H       1  UNL1        0.0345
     47 H           5.0929   -0.2959    1.1204 H       1  UNL1        0.0345
     48 H           2.2279   -2.6845    0.8974 H       1  UNL1        0.0652
     49 H           4.6184   -2.1563   -1.6874 H       1  UNL1        0.0310
     50 H           5.2822   -1.6803   -0.2059 H       1  UNL1        0.0310
     51 H           4.7791    0.0192   -2.5499 H       1  UNL1        0.0271
     52 H           6.1160   -0.0546   -1.4010 H       1  UNL1        0.0271
     53 H           4.9247    1.2345    0.2689 H       1  UNL1        0.0307
     54 H           2.5659    1.2554   -1.7196 H       1  UNL1        0.0312
     55 H           2.7503    2.6381    1.0451 H       1  UNL1        0.0268
     56 H           1.3782    2.6360   -0.0379 H       1  UNL1        0.0268
     57 H           2.7073    4.6785   -0.0620 H       1  UNL1        0.0272
     58 H           2.6034    3.8125   -1.6050 H       1  UNL1        0.0272
     59 H           4.9473    3.1046    1.4018 H       1  UNL1        0.0236
     60 H           4.8143    4.8570    1.2441 H       1  UNL1        0.0236
     61 H           6.2993    4.0280    0.7953 H       1  UNL1        0.0236
     62 H           4.4791    2.4504   -2.1787 H       1  UNL1        0.0310
     63 H           7.0660    1.7780   -0.7366 H       1  UNL1        0.0269
     64 H           7.1176    3.4490   -0.8629 H       1  UNL1        0.0269
     65 H           5.9424    2.2376   -3.1439 H       1  UNL1        0.0297
     66 H           7.4497    3.1025   -2.9273 H       1  UNL1        0.0297
     67 H           3.7061    5.4876   -1.9273 H       1  UNL1        0.2108
     68 H           6.6578    7.1401   -0.3996 H       1  UNL1        0.0779
     69 H           4.8583    7.1673   -0.3897 H       1  UNL1        0.0779
     70 H           5.0653   11.3259   -1.8816 H       1  UNL1        0.0382
     71 H           6.7932   11.0755   -2.2084 H       1  UNL1        0.0382
     72 H           7.3597   12.1110    0.0161 H       1  UNL1        0.0364
     73 H           5.6381   12.3794    0.3298 H       1  UNL1        0.0364
     74 H           6.9399   14.6252    0.6143 H       1  UNL1        0.1487
     75 H           5.9246   16.3195   -1.4490 H       1  UNL1        0.0462
     76 H           7.6431   16.0570   -1.7624 H       1  UNL1        0.0462
     77 H           8.1925   16.9379    0.5169 H       1  UNL1        0.0297
     78 H           6.4902   17.2264    0.8358 H       1  UNL1        0.0297
     79 H           6.3855   18.8371   -1.0914 H       1  UNL1        0.0494
     80 H           8.1054   18.5623   -1.4151 H       1  UNL1        0.0494
     81 H           6.2203   21.0934   -0.1060 H       1  UNL1        0.0871
     82 H           7.7284   22.5327    1.8528 H       1  UNL1        0.1392
     83 H           9.5413   20.9561    2.5030 H       1  UNL1        0.4538
     84 H           9.4651   18.7359    1.2721 H       1  UNL1        0.1600
@<TRIPOS>UNITY_ATOM_ATTR
39 1
charge 1
@<TRIPOS>BOND
     1     2     3    1
     2     3     4    1
     3     4     5    1
     4     5     7    1
     5     7     8    2
     6     2     8    1
     7     8     9    1
     8     9    10    1
     9    10    11    1
    10    11    12    1
    11     2    12    1
    12    12    13    1
    13    13    14    1
    14    14    15    1
    15    15    17    1
    16    11    17    1
    17    17    18    1
    18    18    19    1
    19    19    20    1
    20    15    20    1
    21    22    23    2
    22    22    24    1
    23    24    25    1
    24    25    26    1
    25    26    27    2
    26    26    28    1
    27    28    29    1
    28    29    30    1
    29    30    31    2
    30    30    32   am
    31    32    33    1
    32    33    34    1
    33    34    35    1
    34    35    36    1
    35    36    37   ar
    36    37    38   ar
    37    38    39   ar
    38    39    40   ar
    39    36    40   ar
    40     1     2    1
    41     5     6    2
    42    15    16    1
    43    20    22    1
    44    20    21    1
    45     1    41    1
    46     1    42    1
    47     1    43    1
    48     3    44    1
    49     3    45    1
    50     4    46    1
    51     4    47    1
    52     7    48    1
    53     9    49    1
    54     9    50    1
    55    10    51    1
    56    10    52    1
    57    11    53    1
    58    12    54    1
    59    13    55    1
    60    13    56    1
    61    14    57    1
    62    14    58    1
    63    16    59    1
    64    16    60    1
    65    16    61    1
    66    17    62    1
    67    18    63    1
    68    18    64    1
    69    19    65    1
    70    19    66    1
    71    21    67    1
    72    24    68    1
    73    24    69    1
    74    28    70    1
    75    28    71    1
    76    29    72    1
    77    29    73    1
    78    32    74    1
    79    33    75    1
    80    33    76    1
    81    34    77    1
    82    34    78    1
    83    35    79    1
    84    35    80    1
    85    37    81    1
    86    38    82    1
    87    39    83    1
    88    40    84    1
