@<TRIPOS>MOLECULE
*****
 64 65 0 0 0
SMALL
GASTEIGER

@<TRIPOS>ATOM
      1 C           5.2321   -4.6419    1.7650 C.3     1  UNL1       -0.0653
      2 C           4.8790   -3.5322    0.8230 C.3     1  UNL1       -0.0559
      3 C           6.0787   -3.1779   -0.0028 C.3     1  UNL1       -0.0532
      4 C           5.7092   -2.0179   -0.8583 C.3     1  UNL1       -0.0509
      5 C           6.7162   -1.5496   -1.8474 C.3     1  UNL1       -0.0258
      6 C           6.4472   -0.4534   -2.8613 C.3     1  UNL1        0.1022
      7 C           4.8649   -0.2189   -2.8734 C.2     1  UNL1        0.2348
      8 O           4.1401   -0.2530   -3.8629 O.2     1  UNL1       -0.2737
      9 N           4.2400   -0.0219   -1.6618 N.am    1  UNL1       -0.2946
     10 C           2.8330   -0.4066   -1.4868 C.3     1  UNL1        0.1356
     11 S           2.2883   -0.4830    0.2332 S.O2    1  UNL1        0.0129
     12 O           2.6428   -1.7698    0.7893 O.2     1  UNL1       -0.1678
     13 O           2.7389    0.7377    0.8780 O.2     1  UNL1       -0.1678
     14 C           0.5317   -0.4484    0.1952 C.ar    1  UNL1        0.0899
     15 C          -0.2065   -1.4368    0.8563 C.ar    1  UNL1       -0.0366
     16 C          -1.5925   -1.3196    0.9180 C.ar    1  UNL1       -0.0570
     17 C          -2.2323   -0.2290    0.3158 C.ar    1  UNL1       -0.0503
     18 C          -3.7213   -0.0765    0.3951 C.3     1  UNL1       -0.0397
     19 C          -1.4727    0.7354   -0.3619 C.ar    1  UNL1       -0.0570
     20 C          -0.0897    0.6287   -0.4241 C.ar    1  UNL1       -0.0366
     21 N           7.1949   -0.8913   -4.1329 N.am    1  UNL1       -0.2890
     22 C           6.4048   -1.0608   -5.3541 C.3     1  UNL1        0.0042
     23 C           8.6156   -0.9060   -4.3549 C.2     1  UNL1        0.2474
     24 O           9.0723   -0.4266   -5.3984 O.2     1  UNL1       -0.2700
     25 C           9.6430   -1.6357   -3.4563 C.ar    1  UNL1        0.0497
     26 C          11.0175   -1.6312   -3.7298 C.ar    1  UNL1        0.0281
     27 C          11.9221   -2.3758   -2.8987 C.ar    1  UNL1        0.2803
     28 N          13.3496   -2.4197   -3.1840 N.pl3   1  UNL1        0.0798
     29 O          13.7577   -1.7981   -4.1661 O.2     1  UNL1        0.0414
     30 O          14.0594   -3.0824   -2.4113 O.co2   1  UNL1       -0.5760
     31 C          11.5154   -3.1018   -1.7775 C.ar    1  UNL1        0.0926
     32 C          10.1896   -3.1391   -1.5273 C.ar    1  UNL1        0.2803
     33 N           9.6686   -3.9075   -0.3992 N.pl3   1  UNL1        0.0798
     34 O          10.4801   -4.3831    0.4209 O.2     1  UNL1        0.0414
     35 O           8.4755   -4.0504   -0.3244 O.co2   1  UNL1       -0.5760
     36 C           9.3129   -2.4998   -2.4149 C.ar    1  UNL1        0.0281
     37 H           4.3522   -4.9075    2.3495 H       1  UNL1        0.0230
     38 H           6.0281   -4.3091    2.4383 H       1  UNL1        0.0230
     39 H           5.5875   -5.5127    1.2086 H       1  UNL1        0.0230
     40 H           4.6024   -2.6498    1.4030 H       1  UNL1        0.0263
     41 H           4.0561   -3.8175    0.1561 H       1  UNL1        0.0263
     42 H           6.3356   -4.0424   -0.6194 H       1  UNL1        0.0265
     43 H           6.8783   -2.8607    0.6761 H       1  UNL1        0.0265
     44 H           5.5640   -1.2212   -0.1404 H       1  UNL1        0.0266
     45 H           4.8367   -2.3367   -1.4325 H       1  UNL1        0.0266
     46 H           6.7606   -2.4377   -2.4815 H       1  UNL1        0.0288
     47 H           7.6160   -1.2636   -1.2868 H       1  UNL1        0.0288
     48 H           6.9271    0.4791   -2.5350 H       1  UNL1        0.0597
     49 H           4.7469    0.1551   -0.8042 H       1  UNL1        0.1503
     50 H           2.6255   -1.3781   -1.9582 H       1  UNL1        0.0710
     51 H           2.2779    0.3748   -1.9985 H       1  UNL1        0.0710
     52 H           0.2788   -2.2778    1.3509 H       1  UNL1        0.0637
     53 H          -2.1686   -2.0704    1.4558 H       1  UNL1        0.0621
     54 H          -4.1759   -0.8889    0.9707 H       1  UNL1        0.0278
     55 H          -4.1494   -0.0924   -0.6115 H       1  UNL1        0.0278
     56 H          -3.9787    0.8680    0.8851 H       1  UNL1        0.0278
     57 H          -1.9546    1.5925   -0.8251 H       1  UNL1        0.0621
     58 H           0.4917    1.4007   -0.9195 H       1  UNL1        0.0637
     59 H           5.3444   -1.1772   -5.1803 H       1  UNL1        0.0429
     60 H           6.6878   -2.0125   -5.8122 H       1  UNL1        0.0429
     61 H           6.5647   -0.2374   -6.0536 H       1  UNL1        0.0429
     62 H          11.3923   -1.0995   -4.6064 H       1  UNL1        0.0693
     63 H          12.1869   -3.6730   -1.1399 H       1  UNL1        0.0754
     64 H           8.3291   -2.8396   -2.2844 H       1  UNL1        0.0693
@<TRIPOS>UNITY_ATOM_ATTR
28 1
charge 1
30 1
charge -1
33 1
charge 1
35 1
charge -1
@<TRIPOS>BOND
     1     1     2    1
     2     2     3    1
     3     3     4    1
     4     4     5    1
     5     7     8    2
     6     7     9   am
     7     9    10    1
     8    10    11    1
     9    11    12    2
    10    11    13    2
    11    11    14    1
    12    14    15   ar
    13    15    16   ar
    14    16    17   ar
    15    17    18    1
    16    17    19   ar
    17    19    20   ar
    18    14    20   ar
    19     6    21    1
    20    21    22    1
    21    21    23   am
    22    23    24    2
    23    23    25    1
    24    25    26   ar
    25    26    27   ar
    26    27    28    1
    27    28    29    2
    28    28    30    1
    29    27    31   ar
    30    31    32   ar
    31    32    33    1
    32    33    34    2
    33    33    35    1
    34    32    36   ar
    35    25    36   ar
    36     6     7    1
    37     6     5    1
    38     1    37    1
    39     1    38    1
    40     1    39    1
    41     2    40    1
    42     2    41    1
    43     3    42    1
    44     3    43    1
    45     4    44    1
    46     4    45    1
    47     5    46    1
    48     5    47    1
    49     6    48    1
    50     9    49    1
    51    10    50    1
    52    10    51    1
    53    15    52    1
    54    16    53    1
    55    18    54    1
    56    18    55    1
    57    18    56    1
    58    19    57    1
    59    20    58    1
    60    22    59    1
    61    22    60    1
    62    22    61    1
    63    26    62    1
    64    31    63    1
    65    36    64    1
