@<TRIPOS>MOLECULE
*****
 54 57 0 0 0
SMALL
GASTEIGER

@<TRIPOS>ATOM
      1 C           1.0283    0.0128    0.0354 C.3     1  UNL1       -0.0471
      2 C           2.5490    0.0640    0.0224 C.3     1  UNL1        0.0205
      3 N           3.0830    1.2227    0.7803 N.ar    1  UNL1       -0.3459
      4 C           2.7536    2.5216    0.4087 C.ar    1  UNL1        0.0210
      5 C           2.9113    3.6582    1.1130 C.ar    1  UNL1        0.1020
      6 C           2.2527    4.9583    0.7074 C.2     1  UNL1        0.2746
      7 O           2.3805    5.9777    1.3860 O.2     1  UNL1       -0.2678
      8 N           1.4854    4.9416   -0.4384 N.am    1  UNL1       -0.1508
      9 C           0.4118    4.2255   -0.4401 C.ar    1  UNL1        0.1809
     10 N          -0.1011    3.3578    0.4901 N.ar    1  UNL1       -0.2561
     11 N          -1.0401    2.4589    0.0966 N.ar    1  UNL1       -0.1699
     12 C          -1.3882    2.7338   -1.1219 C.ar    1  UNL1        0.0984
     13 C          -2.4312    1.9360   -1.8231 C.3     1  UNL1       -0.0141
     14 S          -0.5882    4.0935   -1.8939 S.2     1  UNL1       -0.0362
     15 C           3.6524    3.5058    2.3947 C.ar    1  UNL1        0.2016
     16 O           3.8703    4.4373    3.1612 O.2     1  UNL1       -0.2864
     17 C           4.1219    2.1449    2.7756 C.ar    1  UNL1        0.0488
     18 C           4.8169    1.9918    3.9782 C.ar    1  UNL1       -0.0118
     19 C           5.0960    0.7119    4.4379 C.ar    1  UNL1        0.1451
     20 F           5.6308    0.5734    5.6612 F       1  UNL1       -0.2035
     21 C           4.8258   -0.4312    3.6704 C.ar    1  UNL1        0.0677
     22 N           4.9546   -1.7181    4.1609 N.pl3   1  UNL1       -0.3175
     23 C           4.2650   -2.0742    5.4011 C.3     1  UNL1        0.0525
     24 C           5.2898   -2.4342    6.4866 C.3     1  UNL1       -0.0160
     25 N           6.2273   -3.5414    5.9872 N.4     1  UNL1        0.2353
     26 C           7.2376   -3.9010    7.0361 C.3     1  UNL1       -0.0430
     27 C           6.8985   -3.1446    4.6617 C.3     1  UNL1       -0.0160
     28 C           5.8485   -2.7295    3.5984 C.3     1  UNL1        0.0525
     29 C           4.2794   -0.2285    2.3979 C.ar    1  UNL1       -0.0136
     30 C           3.8208    1.0316    1.9641 C.ar    1  UNL1        0.0547
     31 H           0.6589   -0.8653   -0.5036 H       1  UNL1        0.0247
     32 H           0.6348    0.8762   -0.4925 H       1  UNL1        0.0247
     33 H           0.6210   -0.0057    1.0522 H       1  UNL1        0.0247
     34 H           2.8963    0.1424   -1.0125 H       1  UNL1        0.0489
     35 H           2.8884   -0.9050    0.3847 H       1  UNL1        0.0489
     36 H           2.2353    2.5270   -0.5442 H       1  UNL1        0.0818
     37 H           0.4474    3.1119    1.3065 H       1  UNL1        0.1908
     38 H          -2.6718    1.0563   -1.2134 H       1  UNL1        0.0298
     39 H          -2.0945    1.5915   -2.8033 H       1  UNL1        0.0298
     40 H          -3.3348    2.5403   -1.9218 H       1  UNL1        0.0298
     41 H           5.0978    2.8571    4.5738 H       1  UNL1        0.0654
     42 H           3.6363   -2.9496    5.1915 H       1  UNL1        0.0516
     43 H           3.5926   -1.2833    5.7510 H       1  UNL1        0.0516
     44 H           4.7870   -2.8143    7.3806 H       1  UNL1        0.0830
     45 H           5.9224   -1.5792    6.7419 H       1  UNL1        0.0830
     46 H           5.6507   -4.3731    5.8060 H       1  UNL1        0.2032
     47 H           7.8556   -3.0223    7.2392 H       1  UNL1        0.0778
     48 H           7.8434   -4.7271    6.6562 H       1  UNL1        0.0778
     49 H           6.6980   -4.2134    7.9342 H       1  UNL1        0.0778
     50 H           7.4727   -4.0139    4.3255 H       1  UNL1        0.0830
     51 H           7.5723   -2.3124    4.8899 H       1  UNL1        0.0830
     52 H           5.2492   -3.6095    3.3313 H       1  UNL1        0.0516
     53 H           6.3549   -2.3887    2.6890 H       1  UNL1        0.0516
     54 H           4.1611   -1.1082    1.7787 H       1  UNL1        0.0658
@<TRIPOS>UNITY_ATOM_ATTR
25 1
charge 1
@<TRIPOS>BOND
     1     1     2    1
     2     2     3    1
     3     3     4   ar
     4     4     5   ar
     5     5     6    1
     6     6     7    2
     7     6     8    1
     8     8     9    2
     9     9    10   ar
    10    10    11   ar
    11    11    12   ar
    12    12    13    1
    13    12    14   ar
    14     9    14   ar
    15     5    15   ar
    16    15    16    2
    17    15    17   ar
    18    17    18   ar
    19    18    19   ar
    20    19    20    1
    21    19    21   ar
    22    21    22    1
    23    22    23    1
    24    23    24    1
    25    24    25    1
    26    25    26    1
    27    25    27    1
    28    27    28    1
    29    22    28    1
    30    21    29   ar
    31    29    30   ar
    32    17    30   ar
    33     3    30   ar
    34     1    31    1
    35     1    32    1
    36     1    33    1
    37     2    34    1
    38     2    35    1
    39     4    36    1
    40    10    37    1
    41    13    38    1
    42    13    39    1
    43    13    40    1
    44    18    41    1
    45    23    42    1
    46    23    43    1
    47    24    44    1
    48    24    45    1
    49    25    46    1
    50    26    47    1
    51    26    48    1
    52    26    49    1
    53    27    50    1
    54    27    51    1
    55    28    52    1
    56    28    53    1
    57    29    54    1
