REMARK  10 active torsions:
REMARK  status: ('A' for Active; 'I' for Inactive)
REMARK    1  A    between atoms: C_2  and  C_3 
REMARK    2  A    between atoms: C_3  and  C_4 
REMARK    3  A    between atoms: C_4  and  C_5 
REMARK    4  A    between atoms: C_5  and  C_6 
REMARK       I    between atoms: C_6  and  N_8 
REMARK    5  A    between atoms: N_8  and  N_9 
REMARK    6  A    between atoms: N_9  and  C_10 
REMARK    7  A    between atoms: C_10  and  N_12 
REMARK       I    between atoms: N_12  and  C_13 
REMARK    8  A    between atoms: C_13  and  C_15 
REMARK    9  A    between atoms: C_19  and  C_20 
REMARK   10  A    between atoms: C_20  and  O_22 
ROOT
ATOM      1  N   UNL d   1      10.865  -4.623  -3.106  0.00  0.00    -0.298 N 
ATOM      2  C   UNL d   1      11.680  -5.556  -3.790  0.00  0.00     0.257 C 
ATOM      3  O   UNL d   1      11.264  -6.494  -4.465  0.00  0.00    -0.267 OA
ATOM      4  H   UNL d   1      11.343  -3.875  -2.624  0.00  0.00     0.171 HD
ENDROOT
BRANCH   1   5
ATOM      5  C   UNL d   1       9.448  -4.605  -3.094  0.00  0.00     0.193 C 
ATOM      6  S   UNL d   1       8.455  -5.740  -3.854  0.00  0.00    -0.039 SA
BRANCH   5   7
ATOM      7  N   UNL d   1       8.859  -3.548  -2.378  0.00  0.00    -0.273 N 
ATOM      8  H   UNL d   1       9.349  -2.802  -1.887  0.00  0.00     0.189 HD
BRANCH   7   9
ATOM      9  N   UNL d   1       7.408  -3.453  -2.321  0.00  0.00    -0.268 N 
ATOM     10  C   UNL d   1       6.783  -2.427  -1.633  0.00  0.00     0.236 C 
ATOM     11  O   UNL d   1       7.429  -1.558  -1.049  0.00  0.00    -0.272 OA
ATOM     12  H   UNL d   1       6.897  -4.186  -2.813  0.00  0.00     0.190 HD
BRANCH  10  13
ATOM     13  C   UNL d   1       5.242  -2.458  -1.654  0.00  0.00     0.104 C 
BRANCH  13  14
ATOM     14  C   UNL d   1       4.646  -1.280  -0.863  0.00  0.00     0.009 C 
BRANCH  14  15
ATOM     15  C   UNL d   1       3.114  -1.265  -0.853  0.00  0.00     0.000 C 
BRANCH  15  16
ATOM     16  C   UNL d   1       2.579  -0.073  -0.052  0.00  0.00    -0.005 C 
ATOM     17  C   UNL d   1       1.060  -0.057  -0.042  0.00  0.00     0.005 C 
ENDBRANCH  15  16
ENDBRANCH  14  15
ENDBRANCH  13  14
ENDBRANCH  10  13
ENDBRANCH   7   9
ENDBRANCH   5   7
ENDBRANCH   1   5
BRANCH   2  18
ATOM     18  C   UNL d   1      13.172  -5.474  -3.724  0.00  0.00     0.033 A 
ATOM     19  C   UNL d   1      13.902  -5.835  -4.878  0.00  0.00     0.017 A 
ATOM     20  C   UNL d   1      15.285  -6.034  -4.825  0.00  0.00     0.002 A 
ATOM     21  C   UNL d   1      15.964  -5.819  -3.628  0.00  0.00     0.017 A 
ATOM     22  C   UNL d   1      15.255  -5.468  -2.465  0.00  0.00     0.040 A 
ATOM     23  C   UNL d   1      13.854  -5.302  -2.516  0.00  0.00     0.034 A 
BRANCH  22  24
ATOM     24  C   UNL d   1      16.030  -5.344  -1.196  0.00  0.00     0.292 C 
ATOM     25  O   UNL d   1      17.247  -5.482  -1.134  0.00  0.00    -0.259 OA
BRANCH  24  26
ATOM     26  O   UNL d   1      15.215  -5.067  -0.150  0.00  0.00    -0.323 OA
ATOM     27  C   UNL d   1      15.893  -4.934   1.105  0.00  0.00     0.213 C 
ENDBRANCH  24  26
ENDBRANCH  22  24
ENDBRANCH   2  18
TORSDOF 10
