REMARK  7 active torsions:
REMARK  status: ('A' for Active; 'I' for Inactive)
REMARK    1  A    between atoms: O_2  and  C_3 
REMARK    2  A    between atoms: C_6  and  C_7 
REMARK    3  A    between atoms: C_7  and  C_8 
REMARK    4  A    between atoms: C_8  and  N_9 
REMARK    5  A    between atoms: N_9  and  S_10 
REMARK    6  A    between atoms: S_10  and  C_13 
REMARK    7  A    between atoms: C_24  and  O_25 
ROOT
ATOM      1  N   UNL d   1       5.742  -5.871   4.038  0.00  0.00    -0.215 NA
ATOM      2  H   UNL d   1       5.783  -5.480   4.983  0.00  0.00     0.139 HD
ENDROOT
BRANCH   1   3
ATOM      3  C   UNL d   1       4.960  -4.932   3.211  0.00  0.00     0.109 C 
BRANCH   3   4
ATOM      4  C   UNL d   1       5.592  -3.540   3.072  0.00  0.00     0.054 C 
BRANCH   4   5
ATOM      5  C   UNL d   1       4.709  -2.601   2.265  0.00  0.00    -0.054 A 
ATOM      6  C   UNL d   1       5.060  -1.272   2.056  0.00  0.00     0.010 A 
ATOM      7  C   UNL d   1       4.167  -0.401   1.400  0.00  0.00     0.040 A 
ATOM      8  C   UNL d   1       2.936  -0.838   0.853  0.00  0.00     0.101 A 
ATOM      9  C   UNL d   1       2.595  -2.185   1.046  0.00  0.00     0.102 A 
ATOM     10  C   UNL d   1       3.483  -3.023   1.738  0.00  0.00     0.046 A 
BRANCH   8  11
ATOM     11  O   UNL d   1       2.398   0.074  -0.026  0.00  0.00    -0.353 OA
ATOM     12  C   UNL d   1       1.043   0.509   0.033  0.00  0.00     0.210 C 
ENDBRANCH   8  11
BRANCH   9  13
ATOM     13  O   UNL d   1       1.530  -2.953   0.647  0.00  0.00    -0.353 OA
ATOM     14  C   UNL d   1       0.494  -2.260   0.028  0.00  0.00     0.210 C 
ENDBRANCH   9  13
ENDBRANCH   4   5
ENDBRANCH   3   4
ENDBRANCH   1   3
BRANCH   1  15
ATOM     15  S   UNL d   1       4.950  -7.435   4.106  0.00  0.00     0.241 S 
ATOM     16  O   UNL d   1       3.758  -7.223   4.871  0.00  0.00    -0.206 OA
ATOM     17  O   UNL d   1       4.932  -7.960   2.742  0.00  0.00    -0.206 OA
BRANCH  15  18
ATOM     18  C   UNL d   1       6.059  -8.434   5.059  0.00  0.00     0.076 C 
ATOM     19  C   UNL d   1       6.018  -9.835   5.233  0.00  0.00     0.026 C 
ATOM     20  C   UNL d   1       6.797 -10.474   6.299  0.00  0.00     0.022 C 
ATOM     21  C   UNL d   1       7.620  -9.651   7.123  0.00  0.00     0.021 C 
ATOM     22  C   UNL d   1       7.448  -8.300   6.927  0.00  0.00     0.026 C 
ATOM     23  S   UNL d   1       8.860  -9.681   8.715  0.00  0.00    -0.127 SA
ATOM     24  C   UNL d   1       6.871  -7.694   5.861  0.00  0.00     0.049 C 
ATOM     25  N   UNL d   1       7.324  -7.557   8.114  0.00  0.00    -0.291 NA
ATOM     26  C   UNL d   1       8.434  -6.689   8.306  0.00  0.00     0.103 C 
ATOM     27  H   UNL d   1       7.518  -8.347   8.763  0.00  0.00     0.127 HD
ATOM     28  C   UNL d   1       9.233  -7.563   9.266  0.00  0.00     0.094 C 
ENDBRANCH  15  18
ENDBRANCH   1  15
TORSDOF 7
