@<TRIPOS>MOLECULE
*****
 54 55 0 0 0
SMALL
GASTEIGER

@<TRIPOS>ATOM
      1 O           0.9876    0.0055   -0.0583 O.2     1  UNL1       -0.2636
      2 C           2.2206    0.0032   -0.0598 C.2     1  UNL1        0.3164
      3 N           2.9423   -1.0623   -0.5900 N.am    1  UNL1       -0.2273
      4 N           2.2686   -2.2152   -1.1587 N.am    1  UNL1       -0.2455
      5 C           3.0205   -3.2681   -1.6762 C.2     1  UNL1        0.1468
      6 S           4.7056   -3.2286   -1.6634 S.2     1  UNL1       -0.0174
      7 N           2.2757   -4.3275   -2.1904 N.am    1  UNL1       -0.3251
      8 C           2.8977   -5.5163   -2.8033 C.3     1  UNL1        0.0147
      9 C           1.9481   -6.5881   -3.3667 C.3     1  UNL1       -0.0121
     10 C           2.6842   -7.7941   -3.9358 C.ar    1  UNL1       -0.0459
     11 C           2.1276   -9.0757   -3.8069 C.ar    1  UNL1       -0.0585
     12 C           2.8405  -10.2078   -4.2155 C.ar    1  UNL1       -0.0615
     13 C           4.0761  -10.0709   -4.8438 C.ar    1  UNL1       -0.0617
     14 C           4.6161   -8.8041   -5.0333 C.ar    1  UNL1       -0.0615
     15 C           3.9243   -7.6763   -4.5864 C.ar    1  UNL1       -0.0585
     16 C           3.0110    1.2316    0.5502 C.2     1  UNL1        0.3164
     17 O           2.3919    2.1864    1.0251 O.2     1  UNL1       -0.2636
     18 N           4.4020    1.2071    0.5365 N.am    1  UNL1       -0.2273
     19 N           5.1722    2.3050    1.0850 N.am    1  UNL1       -0.2455
     20 C           6.5627    2.2507    1.0656 C.2     1  UNL1        0.1468
     21 S           7.3777    0.9317    0.4014 S.2     1  UNL1       -0.0174
     22 N           7.2003    3.3515    1.6361 N.am    1  UNL1       -0.3251
     23 C           8.6631    3.4697    1.6825 C.3     1  UNL1        0.0147
     24 C           9.2720    4.7272    2.3254 C.3     1  UNL1       -0.0121
     25 C          10.7985    4.7326    2.3000 C.ar    1  UNL1       -0.0459
     26 C          11.5127    5.7447    2.9600 C.ar    1  UNL1       -0.0585
     27 C          12.9035    5.8425    2.8178 C.ar    1  UNL1       -0.0615
     28 C          13.6080    4.8896    2.0834 C.ar    1  UNL1       -0.0617
     29 C          12.9217    3.8583    1.4591 C.ar    1  UNL1       -0.0615
     30 C          11.5343    3.7875    1.5623 C.ar    1  UNL1       -0.0585
     31 H           3.9554   -1.1164   -0.6147 H       1  UNL1        0.1732
     32 H           1.2491   -2.1935   -1.1473 H       1  UNL1        0.1718
     33 H           1.2649   -4.2840   -2.1857 H       1  UNL1        0.1478
     34 H           3.5458   -5.9803   -2.0485 H       1  UNL1        0.0465
     35 H           3.5376   -5.1419   -3.6087 H       1  UNL1        0.0465
     36 H           1.3038   -6.1655   -4.1459 H       1  UNL1        0.0328
     37 H           1.2932   -6.9282   -2.5540 H       1  UNL1        0.0328
     38 H           1.1411   -9.2084   -3.3682 H       1  UNL1        0.0620
     39 H           2.4378  -11.2004   -4.0304 H       1  UNL1        0.0618
     40 H           4.6154  -10.9486   -5.1896 H       1  UNL1        0.0618
     41 H           5.5856   -8.6884   -5.5118 H       1  UNL1        0.0618
     42 H           4.3899   -6.7083   -4.7487 H       1  UNL1        0.0620
     43 H           4.9624    0.4482    0.1620 H       1  UNL1        0.1732
     44 H           4.6401    3.0829    1.4736 H       1  UNL1        0.1718
     45 H           6.6582    4.1300    1.9868 H       1  UNL1        0.1478
     46 H           9.0019    3.4122    0.6406 H       1  UNL1        0.0465
     47 H           9.0417    2.5902    2.2184 H       1  UNL1        0.0465
     48 H           8.9234    4.8221    3.3606 H       1  UNL1        0.0328
     49 H           8.9267    5.6136    1.7779 H       1  UNL1        0.0328
     50 H          10.9978    6.4753    3.5807 H       1  UNL1        0.0620
     51 H          13.4417    6.6733    3.2675 H       1  UNL1        0.0618
     52 H          14.6891    4.9472    1.9963 H       1  UNL1        0.0618
     53 H          13.4518    3.1139    0.8707 H       1  UNL1        0.0618
     54 H          11.0518    2.9687    1.0368 H       1  UNL1        0.0620
@<TRIPOS>BOND
     1     1     2    2
     2     2     3   am
     3     3     4    1
     4     4     5    1
     5     5     6    2
     6     5     7    1
     7     7     8    1
     8     8     9    1
     9     9    10    1
    10    10    11   ar
    11    11    12   ar
    12    12    13   ar
    13    13    14   ar
    14    14    15   ar
    15    10    15   ar
    16     2    16    1
    17    16    17    2
    18    16    18   am
    19    18    19    1
    20    19    20    1
    21    20    21    2
    22    20    22    1
    23    22    23    1
    24    23    24    1
    25    24    25    1
    26    25    26   ar
    27    26    27   ar
    28    27    28   ar
    29    28    29   ar
    30    29    30   ar
    31    25    30   ar
    32     3    31    1
    33     4    32    1
    34     7    33    1
    35     8    34    1
    36     8    35    1
    37     9    36    1
    38     9    37    1
    39    11    38    1
    40    12    39    1
    41    13    40    1
    42    14    41    1
    43    15    42    1
    44    18    43    1
    45    19    44    1
    46    22    45    1
    47    23    46    1
    48    23    47    1
    49    24    48    1
    50    24    49    1
    51    26    50    1
    52    27    51    1
    53    28    52    1
    54    29    53    1
    55    30    54    1
