@<TRIPOS>MOLECULE
*****
 36 38 0 0 0
SMALL
GASTEIGER

@<TRIPOS>ATOM
      1 N           0.9638    0.0179   -0.0915 N.1     1  UNL1       -0.1907
      2 C           2.2248    0.0179   -0.0915 C.1     1  UNL1        0.1044
      3 C           3.7448    0.0179   -0.0915 C.2     1  UNL1        0.1141
      4 C           4.3837   -0.3880    1.0255 C.2     1  UNL1       -0.0321
      5 C           3.6743   -0.8092    2.2479 C.ar    1  UNL1       -0.0230
      6 C           2.6081   -1.7207    2.2094 C.ar    1  UNL1       -0.0526
      7 C           1.8513   -2.0207    3.3428 C.ar    1  UNL1       -0.0372
      8 C           2.2688   -1.4578    4.5478 C.ar    1  UNL1        0.0465
      9 N           1.7627   -1.6063    5.8184 N.ar    1  UNL1       -0.3606
     10 C           2.5414   -0.9243    6.7153 C.ar    1  UNL1        0.0027
     11 C           3.5181   -0.2618    6.0093 C.ar    1  UNL1       -0.0366
     12 C           3.3644   -0.6002    4.6399 C.ar    1  UNL1        0.0002
     13 C           4.0674   -0.2543    3.4712 C.ar    1  UNL1       -0.0454
     14 C           4.4603    0.4859   -1.3412 C.2     1  UNL1        0.2586
     15 O           3.7759    0.8367   -2.3081 O.2     1  UNL1       -0.2691
     16 N           5.8549    0.4351   -1.3749 N.am    1  UNL1       -0.2808
     17 C           6.6365    0.8466   -2.4940 C.ar    1  UNL1        0.0371
     18 C           6.2857    1.9633   -3.2583 C.ar    1  UNL1       -0.0402
     19 C           7.0666    2.3620   -4.3509 C.ar    1  UNL1       -0.0566
     20 C           8.2033    1.6383   -4.7070 C.ar    1  UNL1       -0.0201
     21 C           8.5632    0.5340   -3.9417 C.ar    1  UNL1        0.1186
     22 O           9.6636   -0.2136   -4.2555 O.3     1  UNL1       -0.5067
     23 C           7.8045    0.1469   -2.8295 C.ar    1  UNL1        0.0011
     24 H           5.4629   -0.3801    1.1203 H       1  UNL1        0.0638
     25 H           2.3041   -2.1880    1.2736 H       1  UNL1        0.0624
     26 H           0.9842   -2.6698    3.2723 H       1  UNL1        0.0638
     27 H           0.9586   -2.1728    6.0517 H       1  UNL1        0.1653
     28 H           2.3326   -0.9648    7.7750 H       1  UNL1        0.0807
     29 H           4.2830    0.3770    6.4292 H       1  UNL1        0.0638
     30 H           4.8966    0.4439    3.5353 H       1  UNL1        0.0630
     31 H           6.3669   -0.0618   -0.6591 H       1  UNL1        0.1552
     32 H           5.4174    2.5613   -2.9949 H       1  UNL1        0.0636
     33 H           6.7766    3.2405   -4.9225 H       1  UNL1        0.0619
     34 H           8.7819    1.9493   -5.5724 H       1  UNL1        0.0654
     35 H          10.0941    0.1652   -5.0413 H       1  UNL1        0.2921
     36 H           8.1113   -0.7407   -2.2844 H       1  UNL1        0.0673
@<TRIPOS>BOND
     1     1     2    3
     2     2     3    1
     3     3     4    2
     4     4     5    1
     5     5     6   ar
     6     6     7   ar
     7     7     8   ar
     8     8     9   ar
     9     9    10   ar
    10    10    11   ar
    11    11    12   ar
    12     8    12   ar
    13    12    13   ar
    14     5    13   ar
    15     3    14    1
    16    14    15    2
    17    14    16   am
    18    16    17    1
    19    17    18   ar
    20    18    19   ar
    21    19    20   ar
    22    20    21   ar
    23    21    22    1
    24    21    23   ar
    25    17    23   ar
    26     4    24    1
    27     6    25    1
    28     7    26    1
    29     9    27    1
    30    10    28    1
    31    11    29    1
    32    13    30    1
    33    16    31    1
    34    18    32    1
    35    19    33    1
    36    20    34    1
    37    22    35    1
    38    23    36    1
