REMARK  6 active torsions:
REMARK  status: ('A' for Active; 'I' for Inactive)
REMARK    1  A    between atoms: C_2  and  C_3 
REMARK       I    between atoms: C_3  and  N_5 
REMARK    2  A    between atoms: N_5  and  C_6 
REMARK    3  A    between atoms: C_9  and  N_10 
REMARK       I    between atoms: N_10  and  C_11 
REMARK    4  A    between atoms: C_11  and  C_13 
REMARK    5  A    between atoms: C_16  and  C_17 
REMARK    6  A    between atoms: N_18  and  O_19 
ROOT
ATOM      1  N   UNL d   1       6.390  -4.536  -5.442  0.00  0.00    -0.323 N 
ATOM      2  C   UNL d   1       5.857  -4.591  -6.727  0.00  0.00     0.256 C 
ATOM      3  O   UNL d   1       4.979  -3.858  -7.194  0.00  0.00    -0.267 OA
ATOM      4  H   UNL d   1       7.104  -5.208  -5.188  0.00  0.00     0.169 HD
ENDROOT
BRANCH   1   5
ATOM      5  C   UNL d   1       5.983  -3.609  -4.433  0.00  0.00     0.035 A 
ATOM      6  C   UNL d   1       6.546  -3.650  -3.147  0.00  0.00     0.032 A 
ATOM      7  C   UNL d   1       6.053  -2.818  -2.109  0.00  0.00     0.032 A 
ATOM      8  C   UNL d   1       5.009  -1.923  -2.355  0.00  0.00     0.034 A 
ATOM      9  C   UNL d   1       4.504  -1.835  -3.646  0.00  0.00     0.032 A 
ATOM     10  C   UNL d   1       4.993  -2.653  -4.664  0.00  0.00     0.032 A 
BRANCH   8  11
ATOM     11  N   UNL d   1       4.469  -1.108  -1.330  0.00  0.00    -0.327 N 
ATOM     12  C   UNL d   1       3.093  -0.946  -1.194  0.00  0.00     0.221 C 
ATOM     13  O   UNL d   1       2.263  -1.493  -1.919  0.00  0.00    -0.273 OA
ATOM     14  H   UNL d   1       5.074  -0.835  -0.567  0.00  0.00     0.169 HD
BRANCH  12  15
ATOM     15  C   UNL d   1       2.652  -0.072  -0.030  0.00  0.00     0.098 C 
ATOM     16  C   UNL d   1       1.126  -0.028   0.037  0.00  0.00     0.014 C 
ENDBRANCH  12  15
ENDBRANCH   8  11
ENDBRANCH   1   5
BRANCH   2  17
ATOM     17  C   UNL d   1       6.383  -5.591  -7.686  0.00  0.00     0.032 A 
ATOM     18  C   UNL d   1       6.633  -5.153  -9.001  0.00  0.00     0.018 A 
ATOM     19  C   UNL d   1       6.990  -6.059 -10.009  0.00  0.00     0.014 A 
ATOM     20  C   UNL d   1       7.155  -7.408  -9.690  0.00  0.00    -0.017 A 
ATOM     21  C   UNL d   1       6.862  -7.853  -8.392  0.00  0.00     0.014 A 
ATOM     22  C   UNL d   1       6.468  -6.951  -7.390  0.00  0.00     0.018 A 
BRANCH  20  23
ATOM     23  C   UNL d   1       7.705  -8.354 -10.695  0.00  0.00     0.157 C 
ATOM     24  N   UNL d   1       7.936  -9.596 -10.395  0.00  0.00    -0.146 NA
BRANCH  24  25
ATOM     25  O   UNL d   1       8.512 -10.259 -11.493  0.00  0.00    -0.262 OA
ATOM     26  C   UNL d   1       8.748 -11.620 -11.128  0.00  0.00     0.240 C 
ENDBRANCH  24  25
ENDBRANCH  20  23
ENDBRANCH   2  17
TORSDOF 6
