@<TRIPOS>MOLECULE
*****
 37 38 0 0 0
SMALL
GASTEIGER

@<TRIPOS>ATOM
      1 C           2.9378   -0.8718   -1.4908 C.3     1  UNL1       -0.0439
      2 C           2.5344   -0.1277   -0.1915 C.3     1  UNL1        0.0492
      3 N           1.0644   -0.0994   -0.1298 N.pl3   1  UNL1       -0.3225
      4 C           0.3144   -1.2633   -0.2029 C.ar    1  UNL1        0.1375
      5 N           0.9721   -2.4331   -0.3611 N.ar    1  UNL1       -0.2383
      6 C           0.2939   -3.5607   -0.6618 C.ar    1  UNL1        0.0419
      7 C          -1.0783   -3.6306   -0.7009 C.ar    1  UNL1        0.0561
      8 C          -1.7994   -4.9083   -0.9220 C.2     1  UNL1        0.2430
      9 N          -1.0690   -6.0522   -1.1366 N.am    1  UNL1       -0.3253
     10 O          -3.0159   -4.9509   -0.8949 O.2     1  UNL1       -0.2704
     11 C          -1.7786   -2.4394   -0.4810 C.ar    1  UNL1       -0.0265
     12 C          -1.0794   -1.2448   -0.2582 C.ar    1  UNL1        0.0813
     13 CL         -1.9580    0.2266   -0.0495 Cl      1  UNL1       -0.0800
     14 C           3.1280    1.3295   -0.1768 C.3     1  UNL1        0.0981
     15 O           2.5672    2.0832    0.9127 O.3     1  UNL1       -0.3853
     16 C           4.6566    1.3861   -0.0956 C.ar    1  UNL1       -0.0173
     17 C           5.4549    0.2492   -0.3100 C.ar    1  UNL1       -0.0550
     18 C           6.8272    0.3037   -0.4919 C.ar    1  UNL1       -0.0474
     19 C           7.4754    1.4936   -0.2474 C.ar    1  UNL1        0.0179
     20 BR          9.3593    1.5184   -0.3170 Br      1  UNL1       -0.0503
     21 C           6.7418    2.6237    0.1161 C.ar    1  UNL1       -0.0474
     22 C           5.3366    2.5842    0.1512 C.ar    1  UNL1       -0.0550
     23 H           3.9788   -0.8616   -1.7920 H       1  UNL1        0.0248
     24 H           2.3972   -0.4586   -2.3421 H       1  UNL1        0.0248
     25 H           2.7524   -1.9417   -1.4138 H       1  UNL1        0.0248
     26 H           2.9025   -0.6301    0.7170 H       1  UNL1        0.0524
     27 H           0.6074    0.7581    0.1656 H       1  UNL1        0.1479
     28 H           0.9415   -4.4028   -0.8768 H       1  UNL1        0.0838
     29 H          -0.0653   -6.1322   -1.1657 H       1  UNL1        0.1453
     30 H          -1.5943   -6.9105   -1.2539 H       1  UNL1        0.1453
     31 H          -2.8648   -2.4363   -0.4906 H       1  UNL1        0.0641
     32 H           2.7979    1.8415   -1.0917 H       1  UNL1        0.0662
     33 H           2.9455    1.7255    1.7333 H       1  UNL1        0.2103
     34 H           5.0520   -0.7541   -0.3260 H       1  UNL1        0.0621
     35 H           7.3521   -0.6044   -0.7759 H       1  UNL1        0.0629
     36 H           7.2584    3.5424    0.3753 H       1  UNL1        0.0629
     37 H           4.7839    3.4879    0.4063 H       1  UNL1        0.0621
@<TRIPOS>BOND
     1     3     4    1
     2     4     5   ar
     3     5     6   ar
     4     6     7   ar
     5     7     8    1
     6     8     9   am
     7     8    10    2
     8     7    11   ar
     9    11    12   ar
    10     4    12   ar
    11    12    13    1
    12     2    14    1
    13    14    15    1
    14    14    16    1
    15    16    17   ar
    16    17    18   ar
    17    18    19   ar
    18    19    20    1
    19    19    21   ar
    20    21    22   ar
    21    16    22   ar
    22     2     3    1
    23     2     1    1
    24     1    23    1
    25     1    24    1
    26     1    25    1
    27     2    26    1
    28     3    27    1
    29     6    28    1
    30     9    29    1
    31     9    30    1
    32    11    31    1
    33    14    32    1
    34    15    33    1
    35    17    34    1
    36    18    35    1
    37    21    36    1
    38    22    37    1
