@<TRIPOS>MOLECULE
*****
 57 59 0 0 0
SMALL
GASTEIGER

@<TRIPOS>ATOM
      1 C           0.9972    0.0244    0.5046 C.3     1  UNL1        0.0788
      2 O           2.4017   -0.0934    0.2298 O.3     1  UNL1       -0.4951
      3 C           3.1169    1.0712    0.1626 C.ar    1  UNL1        0.1201
      4 C           4.3239    1.0861   -0.5563 C.ar    1  UNL1       -0.0197
      5 C           5.1135    2.2468   -0.6177 C.ar    1  UNL1       -0.0551
      6 C           4.6987    3.4060    0.0517 C.ar    1  UNL1       -0.0467
      7 C           5.5070    4.6797   -0.0220 C.3     1  UNL1       -0.0194
      8 C           4.8700    5.8787    0.7118 C.3     1  UNL1        0.0282
      9 C           5.6776    7.1230    0.4969 C.2     1  UNL1        0.2175
     10 O           6.7822    7.0973   -0.0412 O.2     1  UNL1       -0.2755
     11 N           5.0503    8.2786    0.9306 N.am    1  UNL1       -0.2848
     12 C           5.5727    9.5452    0.6150 C.ar    1  UNL1        0.0474
     13 C           5.7394   10.4439    1.6926 C.ar    1  UNL1       -0.0397
     14 C           6.2871   11.7119    1.4913 C.ar    1  UNL1       -0.0600
     15 C           6.6976   12.0797    0.2156 C.ar    1  UNL1       -0.0609
     16 C           6.5182   11.1955   -0.8636 C.ar    1  UNL1       -0.0460
     17 C           5.9385    9.9153   -0.6966 C.ar    1  UNL1        0.0801
     18 C           5.7402    9.0652   -1.9514 C.2     1  UNL1        0.3414
     19 O           6.2922    9.3552   -3.0066 O.2     1  UNL1       -0.2449
     20 O           4.8878    7.9960   -1.8225 O.3     1  UNL1       -0.4516
     21 C           4.9093    6.9630   -2.8589 C.3     1  UNL1        0.1698
     22 C           3.9938    5.7063   -2.5620 C.2     1  UNL1        0.2668
     23 O           3.1214    5.7350   -1.6884 O.2     1  UNL1       -0.2705
     24 N           4.2287    4.5191   -3.2699 N.am    1  UNL1       -0.2313
     25 N           3.4182    3.3391   -2.9389 N.am    1  UNL1       -0.2299
     26 C           3.4297    2.2089   -3.7690 C.2     1  UNL1        0.2668
     27 O           4.0038    2.2746   -4.8681 O.2     1  UNL1       -0.2681
     28 C           2.7264    0.9980   -3.3117 C.ar    1  UNL1        0.0753
     29 C           1.5657    0.8785   -2.5692 C.ar    1  UNL1       -0.0425
     30 C           1.1319   -0.4829   -2.4114 C.ar    1  UNL1       -0.0540
     31 C           2.0947   -1.3786   -2.8081 C.ar    1  UNL1       -0.0236
     32 S           3.3190   -0.5829   -3.7088 S.2     1  UNL1       -0.0921
     33 C           3.4687    3.3784    0.7176 C.ar    1  UNL1       -0.0551
     34 C           2.6866    2.2368    0.7658 C.ar    1  UNL1       -0.0197
     35 H           0.5693   -0.9821    0.4634 H       1  UNL1        0.0660
     36 H           0.4768    0.6340   -0.2425 H       1  UNL1        0.0660
     37 H           0.7697    0.4546    1.4794 H       1  UNL1        0.0660
     38 H           4.6220    0.2228   -1.1492 H       1  UNL1        0.0654
     39 H           6.0038    2.2590   -1.2497 H       1  UNL1        0.0621
     40 H           5.6928    4.9118   -1.0752 H       1  UNL1        0.0318
     41 H           6.5079    4.5008    0.3827 H       1  UNL1        0.0318
     42 H           4.8171    5.6734    1.7834 H       1  UNL1        0.0362
     43 H           3.8435    6.0914    0.3886 H       1  UNL1        0.0362
     44 H           4.2748    8.2287    1.5804 H       1  UNL1        0.1548
     45 H           5.5223   10.1367    2.7148 H       1  UNL1        0.0636
     46 H           6.4109   12.4011    2.3261 H       1  UNL1        0.0618
     47 H           7.1619   13.0531    0.0594 H       1  UNL1        0.0618
     48 H           6.8346   11.5273   -1.8512 H       1  UNL1        0.0626
     49 H           5.9483    6.6359   -2.9995 H       1  UNL1        0.0796
     50 H           4.5192    7.4109   -3.7726 H       1  UNL1        0.0796
     51 H           4.6235    4.5079   -4.2092 H       1  UNL1        0.1729
     52 H           3.1662    3.2550   -1.9536 H       1  UNL1        0.1731
     53 H           1.0645    1.7298   -2.1254 H       1  UNL1        0.0630
     54 H           0.2467   -0.8041   -1.8716 H       1  UNL1        0.0623
     55 H           2.0885   -2.4498   -2.6244 H       1  UNL1        0.0693
     56 H           3.0586    4.2583    1.1985 H       1  UNL1        0.0621
     57 H           1.7411    2.3021    1.2859 H       1  UNL1        0.0654
@<TRIPOS>BOND
     1     1     2    1
     2     2     3    1
     3     3     4   ar
     4     4     5   ar
     5     5     6   ar
     6     6     7    1
     7     7     8    1
     8     8     9    1
     9     9    10    2
    10     9    11   am
    11    11    12    1
    12    12    13   ar
    13    13    14   ar
    14    14    15   ar
    15    15    16   ar
    16    16    17   ar
    17    12    17   ar
    18    17    18    1
    19    18    19    2
    20    18    20    1
    21    20    21    1
    22    21    22    1
    23    22    23    2
    24    22    24   am
    25    24    25    1
    26    25    26   am
    27    26    27    2
    28    26    28    1
    29    28    29   ar
    30    29    30   ar
    31    30    31   ar
    32    31    32   ar
    33    28    32   ar
    34     6    33   ar
    35    33    34   ar
    36     3    34   ar
    37     1    35    1
    38     1    36    1
    39     1    37    1
    40     4    38    1
    41     5    39    1
    42     7    40    1
    43     7    41    1
    44     8    42    1
    45     8    43    1
    46    11    44    1
    47    13    45    1
    48    14    46    1
    49    15    47    1
    50    16    48    1
    51    21    49    1
    52    21    50    1
    53    24    51    1
    54    25    52    1
    55    29    53    1
    56    30    54    1
    57    31    55    1
    58    33    56    1
    59    34    57    1
