REMARK  12 active torsions:
REMARK  status: ('A' for Active; 'I' for Inactive)
REMARK    1  A    between atoms: C_2  and  C_3 
REMARK    2  A    between atoms: C_3  and  O_4 
REMARK    3  A    between atoms: O_4  and  C_5 
REMARK    4  A    between atoms: C_8  and  C_9 
REMARK    5  A    between atoms: C_9  and  C_11 
REMARK    6  A    between atoms: C_12  and  O_13 
REMARK    7  A    between atoms: N_16  and  C_17 
REMARK    8  A    between atoms: C_17  and  C_18 
REMARK    9  A    between atoms: C_18  and  C_19 
REMARK   10  A    between atoms: C_19  and  O_20 
REMARK   11  A    between atoms: C_21  and  C_22 
REMARK   12  A    between atoms: C_25  and  O_26 
ROOT
ATOM      1  C   UNL d   1       8.046   0.544  -6.556  0.00  0.00     0.059 A 
ATOM      2  C   UNL d   1       8.060  -0.016  -7.774  0.00  0.00     0.146 A 
ATOM      3  C   UNL d   1       7.957   1.077  -8.760  0.00  0.00     0.278 A 
ATOM      4  O   UNL d   1       7.886   0.892  -9.954  0.00  0.00    -0.265 OA
ATOM      5  N   UNL d   1       7.949   2.275  -8.057  0.00  0.00    -0.333 N 
ATOM      6  C   UNL d   1       8.006   2.058  -6.607  0.00  0.00     0.161 A 
ENDROOT
BRANCH   1   7
ATOM      7  C   UNL d   1       8.230  -0.271  -5.331  0.00  0.00     0.193 C 
ATOM      8  O   UNL d   1       9.137  -1.101  -5.293  0.00  0.00    -0.287 OA
BRANCH   7   9
ATOM      9  C   UNL d   1       7.326  -0.113  -4.158  0.00  0.00     0.015 A 
ATOM     10  C   UNL d   1       7.579  -0.843  -2.986  0.00  0.00     0.018 A 
ATOM     11  C   UNL d   1       6.622  -0.886  -1.960  0.00  0.00     0.038 A 
ATOM     12  C   UNL d   1       5.449  -0.135  -2.053  0.00  0.00     0.069 A 
ATOM     13  C   UNL d   1       5.240   0.652  -3.181  0.00  0.00     0.038 A 
ATOM     14  C   UNL d   1       6.160   0.646  -4.230  0.00  0.00     0.018 A 
BRANCH  12  15
ATOM     15  O   UNL d   1       4.609  -0.162  -0.972  0.00  0.00    -0.348 OA
BRANCH  15  16
ATOM     16  C   UNL d   1       3.212  -0.082  -1.279  0.00  0.00     0.202 C 
BRANCH  16  17
ATOM     17  C   UNL d   1       2.436   0.036   0.000  0.00  0.00    -0.011 C 
ATOM     18  C   UNL d   1       1.096   0.052   0.037  0.00  0.00     0.009 C 
ENDBRANCH  16  17
ENDBRANCH  15  16
ENDBRANCH  12  15
ENDBRANCH   7   9
ENDBRANCH   1   7
BRANCH   2  19
ATOM     19  O   UNL d   1       8.145  -1.319  -8.169  0.00  0.00    -0.355 OA
ATOM     20  H   UNL d   1       8.339  -1.883  -7.402  0.00  0.00     0.218 HD
ENDBRANCH   2  19
BRANCH   6  21
ATOM     21  C   UNL d   1       9.163   2.779  -5.924  0.00  0.00    -0.030 C 
ATOM     22  C   UNL d   1       9.249   4.183  -5.939  0.00  0.00     0.012 C 
ATOM     23  C   UNL d   1      10.389   4.841  -5.463  0.00  0.00     0.037 C 
ATOM     24  C   UNL d   1      11.376   4.115  -4.811  0.00  0.00     0.065 C 
ATOM     25  C   UNL d   1      11.275   2.745  -4.696  0.00  0.00     0.037 C 
ATOM     26  C   UNL d   1      10.195   2.090  -5.269  0.00  0.00     0.012 C 
BRANCH  24  27
ATOM     27  O   UNL d   1      12.464   4.706  -4.251  0.00  0.00    -0.361 OA
ATOM     28  H   UNL d   1      12.353   5.668  -4.302  0.00  0.00     0.217 HD
ENDBRANCH  24  27
ENDBRANCH   6  21
BRANCH   5  29
ATOM     29  C   UNL d   1       7.788   3.589  -8.686  0.00  0.00     0.129 C 
BRANCH  29  30
ATOM     30  C   UNL d   1       7.728   3.575 -10.208  0.00  0.00     0.046 C 
BRANCH  30  31
ATOM     31  C   UNL d   1       7.629   4.963 -10.805  0.00  0.00     0.165 C 
BRANCH  31  32
ATOM     32  O   UNL d   1       7.590   4.872 -12.223  0.00  0.00    -0.401 OA
ATOM     33  H   UNL d   1       8.365   4.355 -12.507  0.00  0.00     0.209 HD
ENDBRANCH  31  32
ENDBRANCH  30  31
ENDBRANCH  29  30
ENDBRANCH   5  29
TORSDOF 12
