@<TRIPOS>MOLECULE
*****
 67 70 0 0 0
SMALL
GASTEIGER

@<TRIPOS>ATOM
      1 C           0.9963   -0.3179    0.2785 C.3     1  UNL1       -0.0307
      2 C           2.7538   -0.4505    0.6447 C.3     1  UNL1        0.0869
      3 O           4.1558    0.1406    0.2027 O.3     1  UNL1       -0.4888
      4 C           4.7949    1.1863   -0.6107 C.ar    1  UNL1        0.1587
      5 C           5.1663    2.5547   -0.2775 C.ar    1  UNL1       -0.0165
      6 C           6.4249    3.0164   -0.5886 C.ar    1  UNL1       -0.0581
      7 C           7.2820    2.0546   -1.1068 C.ar    1  UNL1       -0.0583
      8 C           6.7941    0.7869   -1.5941 C.ar    1  UNL1       -0.0196
      9 C           5.4418    0.4685   -1.5500 C.ar    1  UNL1        0.1415
     10 N           4.6263   -0.5684   -2.0961 N.pl3   1  UNL1       -0.2417
     11 C           3.1275   -0.4940   -1.9401 C.2     1  UNL1        0.3843
     12 N           2.2816    0.5622   -1.6405 N.am    1  UNL1        0.0006
     13 C           2.3924    1.7051   -0.6005 C.2     1  UNL1        0.3406
     14 O           2.9959    1.8233    0.4795 O.2     1  UNL1       -0.2484
     15 C           1.4310    2.6862   -0.0663 C.ar    1  UNL1        0.0579
     16 C           1.8245    3.9616   -0.3312 C.ar    1  UNL1       -0.0480
     17 C           1.4455    4.9620    0.5805 C.ar    1  UNL1       -0.0592
     18 C           0.6187    4.6317    1.6671 C.ar    1  UNL1       -0.0406
     19 C           0.3535    3.3424    2.1294 C.ar    1  UNL1        0.0300
     20 N          -0.3306    2.8943    3.1961 N.pl3   1  UNL1       -0.3360
     21 C          -1.0637    3.8709    3.9902 C.3     1  UNL1        0.0004
     22 C          -0.5112    1.4800    3.6165 C.3     1  UNL1        0.0004
     23 C           0.9753    2.4098    1.2819 C.ar    1  UNL1       -0.0270
     24 N           2.6123   -1.9191   -2.0136 N.pl3   1  UNL1       -0.2767
     25 C           1.3258   -2.4415   -1.4378 C.3     1  UNL1        0.0684
     26 C           0.9585   -3.9023   -1.6960 C.3     1  UNL1        0.0059
     27 C          -0.4695   -4.3209   -1.3773 C.2     1  UNL1        0.0106
     28 C          -0.8946   -5.5400   -1.7004 C.ar    1  UNL1        0.0510
     29 C          -0.2062   -6.6250   -2.3121 C.ar    1  UNL1       -0.0482
     30 C          -0.9132   -7.6831   -2.7049 C.ar    1  UNL1       -0.0608
     31 C          -2.3274   -7.8064   -2.3895 C.ar    1  UNL1       -0.0555
     32 C          -3.0426   -6.8434   -1.7610 C.ar    1  UNL1        0.0098
     33 C          -2.3210   -5.6168   -1.3878 C.ar    1  UNL1        0.2086
     34 N          -2.7321   -4.5223   -0.8138 N.2     1  UNL1       -0.2369
     35 C          -1.6041   -3.5321   -0.7631 C.3     1  UNL1        0.1661
     36 H           0.4482   -1.1509    0.7240 H       1  UNL1        0.0262
     37 H           0.6093   -0.2091   -0.7584 H       1  UNL1        0.0262
     38 H           0.4140    0.4902    0.6906 H       1  UNL1        0.0262
     39 H           2.9688   -1.4890    0.4163 H       1  UNL1        0.0694
     40 H           2.8525   -0.2791    1.7044 H       1  UNL1        0.0694
     41 H           4.5329    3.2739    0.2577 H       1  UNL1        0.0655
     42 H           6.7552    4.0146   -0.2837 H       1  UNL1        0.0619
     43 H           8.3440    2.2905   -1.1181 H       1  UNL1        0.0619
     44 H           7.5276    0.0549   -1.9108 H       1  UNL1        0.0653
     45 H           5.0856   -1.4614   -1.9242 H       1  UNL1        0.2648
     46 H           2.5833    4.1465   -1.0828 H       1  UNL1        0.0626
     47 H           1.8053    5.9652    0.4202 H       1  UNL1        0.0618
     48 H           0.1840    5.4930    2.1768 H       1  UNL1        0.0636
     49 H          -0.9164    4.8903    3.6466 H       1  UNL1        0.0428
     50 H          -0.7130    3.8270    5.0207 H       1  UNL1        0.0428
     51 H          -2.1351    3.6709    3.9297 H       1  UNL1        0.0428
     52 H           0.0089    0.7236    3.0152 H       1  UNL1        0.0428
     53 H          -1.5654    1.1818    3.5787 H       1  UNL1        0.0428
     54 H          -0.1437    1.3367    4.6385 H       1  UNL1        0.0428
     55 H           1.3005    1.5315    1.8356 H       1  UNL1        0.0644
     56 H           3.3335   -2.6365   -1.9189 H       1  UNL1        0.2577
     57 H           0.5104   -1.8411   -1.8315 H       1  UNL1        0.0658
     58 H           1.3347   -2.4557   -0.3433 H       1  UNL1        0.0658
     59 H           1.6096   -4.5655   -1.1024 H       1  UNL1        0.0343
     60 H           1.1501   -4.1177   -2.7491 H       1  UNL1        0.0343
     61 H           0.8625   -6.5482   -2.4812 H       1  UNL1        0.0626
     62 H          -0.4228   -8.4736   -3.2696 H       1  UNL1        0.0618
     63 H          -2.7804   -8.7547   -2.6701 H       1  UNL1        0.0620
     64 H          -4.0971   -6.9886   -1.5579 H       1  UNL1        0.0683
     65 H          -3.6783   -4.4247   -0.4739 H       1  UNL1        0.4459
     66 H          -1.4278   -3.2602    0.2827 H       1  UNL1        0.1077
     67 H          -1.8961   -2.6554   -1.3513 H       1  UNL1        0.1077
@<TRIPOS>UNITY_ATOM_ATTR
34 1
charge 1
@<TRIPOS>BOND
     1     1     2    1
     2     2     3    1
     3     3     4    1
     4     4     5   ar
     5     5     6   ar
     6     6     7   ar
     7     7     8   ar
     8     8     9   ar
     9     4     9   ar
    10     9    10    1
    11    10    11    1
    12    11    12    2
    13    12    13    1
    14    13    14    2
    15    13    15    1
    16    15    16   ar
    17    16    17   ar
    18    17    18   ar
    19    18    19   ar
    20    19    20    1
    21    20    21    1
    22    20    22    1
    23    19    23   ar
    24    15    23   ar
    25    11    24    1
    26    24    25    1
    27    25    26    1
    28    26    27    1
    29    27    28    2
    30    28    29   ar
    31    29    30   ar
    32    30    31   ar
    33    31    32   ar
    34    32    33   ar
    35    28    33   ar
    36    33    34    2
    37    34    35    1
    38    27    35    1
    39     1    36    1
    40     1    37    1
    41     1    38    1
    42     2    39    1
    43     2    40    1
    44     5    41    1
    45     6    42    1
    46     7    43    1
    47     8    44    1
    48    10    45    1
    49    16    46    1
    50    17    47    1
    51    18    48    1
    52    21    49    1
    53    21    50    1
    54    21    51    1
    55    22    52    1
    56    22    53    1
    57    22    54    1
    58    23    55    1
    59    24    56    1
    60    25    57    1
    61    25    58    1
    62    26    59    1
    63    26    60    1
    64    29    61    1
    65    30    62    1
    66    31    63    1
    67    32    64    1
    68    34    65    1
    69    35    66    1
    70    35    67    1
