@<TRIPOS>MOLECULE
*****
 54 56 0 0 0
SMALL
GASTEIGER

@<TRIPOS>ATOM
      1 C           0.9365   -0.0143   -0.0751 C.3     1  UNL1       -0.0515
      2 C           2.4741   -0.0023   -0.0637 C.3     1  UNL1        0.0411
      3 C           2.9755   -1.3735    0.4219 C.3     1  UNL1       -0.0515
      4 C           2.9887    0.2354   -1.4906 C.3     1  UNL1       -0.0515
      5 C           2.9533    1.0643    0.8789 C.ar    1  UNL1        0.2330
      6 N           3.5888    0.9394    2.0240 N.ar    1  UNL1       -0.1909
      7 C           3.5749    2.2229    2.5152 C.ar    1  UNL1        0.2021
      8 C           4.2157    2.5805    3.7678 C.ar    1  UNL1        0.0226
      9 C           3.5543    3.2936    4.7754 C.ar    1  UNL1       -0.0492
     10 C           4.2577    3.7493    5.9158 C.ar    1  UNL1       -0.0398
     11 C           5.6142    3.4283    6.0970 C.ar    1  UNL1        0.0338
     12 N           6.3076    3.7988    7.2891 N.am    1  UNL1       -0.2777
     13 C           7.6270    3.4471    7.5911 C.2     1  UNL1        0.3031
     14 O           8.4240    2.8171    6.8994 O.2     1  UNL1       -0.2648
     15 C           8.1764    3.8864    8.9690 C.2     1  UNL1        0.2993
     16 O           7.4777    4.4980    9.7695 O.2     1  UNL1       -0.2652
     17 N           9.5041    3.5185    9.1836 N.am    1  UNL1       -0.3075
     18 C          10.2147    3.8382   10.4042 C.3     1  UNL1        0.0137
     19 C          11.6616    3.3425   10.4201 C.3     1  UNL1       -0.0192
     20 C          12.3627    3.7024   11.7321 C.3     1  UNL1        0.0296
     21 N          13.7532    3.2149   11.7534 N.ar    1  UNL1       -0.2957
     22 C          14.1486    1.8802   11.7796 C.ar    1  UNL1        0.0732
     23 C          15.5142    1.8690   11.7706 C.ar    1  UNL1        0.1870
     24 N          15.9091    3.1853   11.7661 N.ar    1  UNL1       -0.2011
     25 C          14.8466    3.9968   11.7661 C.ar    1  UNL1        0.2463
     26 C           6.2439    2.7052    5.0798 C.ar    1  UNL1       -0.0398
     27 C           5.5601    2.2729    3.9417 C.ar    1  UNL1       -0.0492
     28 N           3.0166    3.1221    1.6908 N.ar    1  UNL1       -0.0561
     29 O           2.6080    2.3560    0.5982 O.2     1  UNL1       -0.3371
     30 H           0.5516   -0.8078   -0.7252 H       1  UNL1        0.0240
     31 H           0.5307    0.9377   -0.4375 H       1  UNL1        0.0240
     32 H           0.5345   -0.1795    0.9315 H       1  UNL1        0.0240
     33 H           2.6201   -2.1812   -0.2269 H       1  UNL1        0.0240
     34 H           2.6258   -1.5853    1.4396 H       1  UNL1        0.0240
     35 H           4.0713   -1.4114    0.4373 H       1  UNL1        0.0240
     36 H           2.6378   -0.5537   -2.1674 H       1  UNL1        0.0240
     37 H           4.0839    0.2410   -1.5268 H       1  UNL1        0.0240
     38 H           2.6383    1.1922   -1.8942 H       1  UNL1        0.0240
     39 H           2.4873    3.4939    4.6753 H       1  UNL1        0.0625
     40 H           3.7148    4.3640    6.6312 H       1  UNL1        0.0636
     41 H           5.7880    4.2986    8.0075 H       1  UNL1        0.1553
     42 H           9.9443    3.0037    8.4187 H       1  UNL1        0.1491
     43 H           9.6564    3.3961   11.2366 H       1  UNL1        0.0463
     44 H          10.1877    4.9262   10.5260 H       1  UNL1        0.0463
     45 H          12.2239    3.7706    9.5811 H       1  UNL1        0.0297
     46 H          11.6837    2.2550   10.2794 H       1  UNL1        0.0297
     47 H          11.8445    3.2612   12.5917 H       1  UNL1        0.0494
     48 H          12.3784    4.7893   11.8766 H       1  UNL1        0.0494
     49 H          13.3995    1.1068   11.7859 H       1  UNL1        0.0871
     50 H          16.2606    1.0938   11.7671 H       1  UNL1        0.1392
     51 H          16.8747    3.5078   11.7634 H       1  UNL1        0.4538
     52 H          14.8719    5.0808   11.7694 H       1  UNL1        0.1600
     53 H           7.2965    2.4600    5.1141 H       1  UNL1        0.0636
     54 H           6.1027    1.7127    3.1834 H       1  UNL1        0.0625
@<TRIPOS>UNITY_ATOM_ATTR
24 1
charge 1
@<TRIPOS>BOND
     1     1     2    1
     2     2     3    1
     3     2     4    1
     4     2     5    1
     5     5     6   ar
     6     6     7   ar
     7     7     8    1
     8     8     9   ar
     9     9    10   ar
    10    10    11   ar
    11    11    12    1
    12    12    13   am
    13    13    14    2
    14    13    15    1
    15    15    16    2
    16    15    17   am
    17    17    18    1
    18    18    19    1
    19    19    20    1
    20    20    21    1
    21    21    22   ar
    22    22    23   ar
    23    23    24   ar
    24    24    25   ar
    25    21    25   ar
    26    11    26   ar
    27    26    27   ar
    28     8    27   ar
    29     7    28   ar
    30    28    29   ar
    31     5    29   ar
    32     1    30    1
    33     1    31    1
    34     1    32    1
    35     3    33    1
    36     3    34    1
    37     3    35    1
    38     4    36    1
    39     4    37    1
    40     4    38    1
    41     9    39    1
    42    10    40    1
    43    12    41    1
    44    17    42    1
    45    18    43    1
    46    18    44    1
    47    19    45    1
    48    19    46    1
    49    20    47    1
    50    20    48    1
    51    22    49    1
    52    23    50    1
    53    24    51    1
    54    25    52    1
    55    26    53    1
    56    27    54    1
