REMARK  5 active torsions:
REMARK  status: ('A' for Active; 'I' for Inactive)
REMARK    1  A    between atoms: C_2  and  C_12 
REMARK    2  A    between atoms: C_2  and  C_3 
REMARK    3  A    between atoms: C_3  and  N_4 
REMARK    4  A    between atoms: N_4  and  C_5 
REMARK       I    between atoms: C_12  and  N_14 
REMARK    5  A    between atoms: N_14  and  N_15 
ROOT
ATOM      1  C   UNL d   1       1.053  -0.018  -0.058  0.00  0.00     0.133 C 
ENDROOT
BRANCH   1   2
ATOM      2  N   UNL d   1       0.438  -0.441   1.198  0.00  0.00    -0.388 N 
ATOM      3  H   UNL d   1       1.004  -0.703   1.993  0.00  0.00     0.159 HD
BRANCH   2   4
ATOM      4  C   UNL d   1      -0.925  -0.609   1.386  0.00  0.00     0.050 A 
ATOM      5  C   UNL d   1      -1.449  -0.163   2.618  0.00  0.00     0.031 A 
ATOM      6  C   UNL d   1      -2.816  -0.228   2.900  0.00  0.00     0.002 A 
ATOM      7  C   UNL d   1      -3.691  -0.743   1.952  0.00  0.00     0.002 A 
ATOM      8  C   UNL d   1      -3.197  -1.208   0.739  0.00  0.00     0.026 A 
ATOM      9  C   UNL d   1      -1.830  -1.152   0.456  0.00  0.00     0.060 A 
ATOM     10 CL   UNL d   1      -1.368  -1.930  -1.020  0.00  0.00    -0.082 Cl
ENDBRANCH   2   4
ENDBRANCH   1   2
BRANCH   1  11
ATOM     11  C   UNL d   1       2.598  -0.097  -0.076  0.00  0.00     0.093 C 
ATOM     12  C   UNL d   1       3.197  -0.431   1.288  0.00  0.00     0.021 C 
BRANCH  11  13
ATOM     13  C   UNL d   1       3.077  -1.097  -1.139  0.00  0.00     0.237 C 
ATOM     14  O   UNL d   1       2.325  -1.747  -1.872  0.00  0.00    -0.272 OA
ATOM     15  N   UNL d   1       4.457  -1.224  -1.255  0.00  0.00    -0.294 N 
ATOM     16  H   UNL d   1       5.090  -0.602  -0.759  0.00  0.00     0.183 HD
BRANCH  15  17
ATOM     17  N   UNL d   1       4.985  -2.080  -2.252  0.00  0.00    -0.247 NA
ATOM     18  H   UNL d   1       4.175  -2.526  -2.714  0.00  0.00     0.143 HD
ATOM     19  H   UNL d   1       5.464  -2.857  -1.792  0.00  0.00     0.143 HD
ENDBRANCH  15  17
ENDBRANCH  11  13
ENDBRANCH   1  11
TORSDOF 5
