@<TRIPOS>MOLECULE
*****
 57 58 0 0 0
SMALL
GASTEIGER

@<TRIPOS>ATOM
      1 C         -12.3431   -9.1021   -6.6083 C.3     1  UNL1       -0.0570
      2 C         -11.4673   -7.8750   -6.3530 C.3     1  UNL1        0.0215
      3 C         -10.0193   -8.1807   -6.7272 C.2     1  UNL1        0.2169
      4 O          -9.6984   -9.2878   -7.1559 O.2     1  UNL1       -0.2755
      5 N          -9.1111   -7.1506   -6.5027 N.am    1  UNL1       -0.2855
      6 C          -7.7220   -7.3215   -6.7529 C.ar    1  UNL1        0.0334
      7 C          -6.7718   -6.8724   -5.8358 C.ar    1  UNL1       -0.0398
      8 C          -5.3909   -7.0713   -6.0810 C.ar    1  UNL1       -0.0478
      9 C          -4.9291   -7.7432   -7.2325 C.ar    1  UNL1        0.0383
     10 C          -3.4395   -8.0531   -7.3683 C.2     1  UNL1        0.2601
     11 O          -2.6504   -7.7048   -6.4993 O.2     1  UNL1       -0.2687
     12 N          -3.0263   -8.7643   -8.4906 N.am    1  UNL1       -0.2311
     13 N          -1.6491   -9.1598   -8.7023 N.am    1  UNL1       -0.2453
     14 C          -1.3405   -9.8818   -9.8673 C.2     1  UNL1        0.1533
     15 S          -2.5783  -10.2492  -10.9630 S.2     1  UNL1       -0.0170
     16 N           0.0142  -10.2421  -10.0157 N.am    1  UNL1       -0.2627
     17 C           0.5423  -10.9244  -11.1243 C.2     1  UNL1        0.2497
     18 O          -0.1021  -11.3554  -12.0706 O.2     1  UNL1       -0.2698
     19 C           2.0033  -11.1257  -11.2628 C.ar    1  UNL1        0.0405
     20 C           2.4755  -10.8721  -12.5650 C.ar    1  UNL1       -0.0494
     21 C           3.7500  -11.2198  -12.9157 C.ar    1  UNL1       -0.0576
     22 C           4.5749  -11.7424  -11.9440 C.ar    1  UNL1       -0.0199
     23 C           4.1684  -12.0530  -10.6456 C.ar    1  UNL1        0.1216
     24 O           4.9326  -12.6696   -9.6908 O.3     1  UNL1       -0.4891
     25 C           6.3127  -13.1039   -9.8394 C.3     1  UNL1        0.0972
     26 C           7.0112  -12.9054  -11.1714 C.3     1  UNL1       -0.0278
     27 C           6.4316  -14.6050   -9.5359 C.3     1  UNL1       -0.0189
     28 C           6.0987  -14.9322   -8.0976 C.3     1  UNL1       -0.0619
     29 C           2.8379  -11.7366  -10.3043 C.ar    1  UNL1       -0.0078
     30 C          -5.8936   -8.1350   -8.1691 C.ar    1  UNL1       -0.0478
     31 C          -7.2679   -7.9336   -7.9247 C.ar    1  UNL1       -0.0398
     32 H         -13.3917   -8.9107   -6.3631 H       1  UNL1        0.0234
     33 H         -12.0041   -9.9534   -6.0059 H       1  UNL1        0.0234
     34 H         -12.2897   -9.4052   -7.6605 H       1  UNL1        0.0234
     35 H         -11.5311   -7.6005   -5.2942 H       1  UNL1        0.0356
     36 H         -11.8339   -7.0361   -6.9542 H       1  UNL1        0.0356
     37 H          -9.3963   -6.3795   -5.9112 H       1  UNL1        0.1548
     38 H          -7.0817   -6.4472   -4.8832 H       1  UNL1        0.0636
     39 H          -4.6749   -6.7113   -5.3429 H       1  UNL1        0.0626
     40 H          -3.6635   -9.0959   -9.2098 H       1  UNL1        0.1731
     41 H          -0.9967   -8.8841   -7.9718 H       1  UNL1        0.1718
     42 H           0.6765   -9.9166   -9.3279 H       1  UNL1        0.1569
     43 H           1.8384  -10.4434  -13.3334 H       1  UNL1        0.0625
     44 H           4.1375  -11.1116  -13.9248 H       1  UNL1        0.0619
     45 H           5.5504  -11.8657  -12.3572 H       1  UNL1        0.0654
     46 H           6.8883  -12.5473   -9.0882 H       1  UNL1        0.0730
     47 H           6.4473  -13.4432  -11.9463 H       1  UNL1        0.0265
     48 H           8.0243  -13.3004  -11.2334 H       1  UNL1        0.0265
     49 H           7.1028  -11.8305  -11.3594 H       1  UNL1        0.0265
     50 H           7.4590  -14.9410   -9.7360 H       1  UNL1        0.0298
     51 H           5.7713  -15.1738  -10.2017 H       1  UNL1        0.0298
     52 H           6.7644  -14.3885   -7.4200 H       1  UNL1        0.0231
     53 H           6.2313  -16.0035   -7.9200 H       1  UNL1        0.0231
     54 H           5.0652  -14.6649   -7.8669 H       1  UNL1        0.0231
     55 H           2.4451  -12.0180   -9.3302 H       1  UNL1        0.0662
     56 H          -5.6294   -8.6123   -9.1061 H       1  UNL1        0.0626
     57 H          -7.9856   -8.2601   -8.6758 H       1  UNL1        0.0636
@<TRIPOS>BOND
     1     1     2    1
     2     2     3    1
     3     3     4    2
     4     3     5   am
     5     5     6    1
     6     6     7   ar
     7     7     8   ar
     8     8     9   ar
     9     9    10    1
    10    10    11    2
    11    10    12   am
    12    12    13    1
    13    13    14    1
    14    14    15    2
    15    14    16    1
    16    16    17   am
    17    17    18    2
    18    17    19    1
    19    19    20   ar
    20    20    21   ar
    21    21    22   ar
    22    22    23   ar
    23    23    24    1
    24    25    27    1
    25    27    28    1
    26    23    29   ar
    27    19    29   ar
    28     9    30   ar
    29    30    31   ar
    30     6    31   ar
    31    25    26    1
    32    25    24    1
    33     1    32    1
    34     1    33    1
    35     1    34    1
    36     2    35    1
    37     2    36    1
    38     5    37    1
    39     7    38    1
    40     8    39    1
    41    12    40    1
    42    13    41    1
    43    16    42    1
    44    20    43    1
    45    21    44    1
    46    22    45    1
    47    25    46    1
    48    26    47    1
    49    26    48    1
    50    26    49    1
    51    27    50    1
    52    27    51    1
    53    28    52    1
    54    28    53    1
    55    28    54    1
    56    29    55    1
    57    30    56    1
    58    31    57    1
