@<TRIPOS>MOLECULE
*****
 61 64 0 0 0
SMALL
GASTEIGER

@<TRIPOS>ATOM
      1 C           1.0090   -0.0668    0.0474 C.3     1  UNL1       -0.0372
      2 C           2.5317   -0.1023   -0.0692 C.3     1  UNL1        0.0719
      3 C           3.0331    0.9637   -1.0650 C.3     1  UNL1        0.0398
      4 N           2.6313    0.5715   -2.4249 N.pl3   1  UNL1       -0.3047
      5 C           1.8866    1.3776   -3.2499 C.ar    1  UNL1        0.2066
      6 N           0.6444    0.9033   -3.5855 N.ar    1  UNL1       -0.1923
      7 C          -0.1615    1.6626   -4.3488 C.ar    1  UNL1        0.2219
      8 N          -1.3831    1.1789   -4.7465 N.pl3   1  UNL1       -0.2894
      9 C          -1.7322    1.1400   -6.1674 C.3     1  UNL1        0.0552
     10 C          -2.1755   -0.3008   -6.5552 C.3     1  UNL1       -0.0153
     11 N          -3.2899   -0.7921   -5.6249 N.4     1  UNL1        0.2407
     12 C          -4.5789   -0.0131   -5.8426 C.3     1  UNL1       -0.0058
     13 C          -5.7422   -0.4451   -4.9989 C.ar    1  UNL1       -0.0029
     14 C          -6.9485   -0.8361   -5.5845 C.ar    1  UNL1       -0.0535
     15 C          -8.0514   -1.1109   -4.7730 C.ar    1  UNL1       -0.0613
     16 C          -7.9256   -1.1328   -3.3832 C.ar    1  UNL1       -0.0617
     17 C          -6.7283   -0.7782   -2.7918 C.ar    1  UNL1       -0.0613
     18 C          -5.6863   -0.3568   -3.5981 C.ar    1  UNL1       -0.0535
     19 C          -2.7194   -0.7889   -4.1953 C.3     1  UNL1       -0.0153
     20 C          -2.3403    0.6534   -3.7840 C.3     1  UNL1        0.0552
     21 N           0.1789    2.8794   -4.7761 N.ar    1  UNL1       -0.1927
     22 C           1.3820    3.3751   -4.4219 C.ar    1  UNL1        0.2013
     23 N           1.5612    4.6939   -4.7812 N.pl3   1  UNL1       -0.3376
     24 C           2.3008    2.6321   -3.6917 C.ar    1  UNL1        0.3516
     25 N           3.6697    3.1252   -3.5045 N.pl3   1  UNL1        0.0868
     26 O           4.5286    2.3915   -3.0138 O.2     1  UNL1        0.0417
     27 O           3.9313    4.2817   -3.8901 O.co2   1  UNL1       -0.5759
     28 C           3.0862   -0.7611   -2.8159 C.3     1  UNL1        0.0398
     29 C           2.6016   -1.7904   -1.7763 C.3     1  UNL1        0.0719
     30 C           3.1426   -3.1745   -2.0960 C.3     1  UNL1       -0.0372
     31 O           2.9952   -1.4226   -0.4384 O.3     1  UNL1       -0.3708
     32 H           0.6652    0.9151    0.3828 H       1  UNL1        0.0255
     33 H           0.6614   -0.8360    0.7418 H       1  UNL1        0.0255
     34 H           0.5206   -0.2667   -0.9109 H       1  UNL1        0.0255
     35 H           2.9581    0.1149    0.9183 H       1  UNL1        0.0609
     36 H           4.1291    0.9899   -1.0079 H       1  UNL1        0.0489
     37 H           2.6573    1.9565   -0.7910 H       1  UNL1        0.0489
     38 H          -0.9037    1.4378   -6.8167 H       1  UNL1        0.0517
     39 H          -2.5546    1.8389   -6.3632 H       1  UNL1        0.0517
     40 H          -1.3487   -1.0092   -6.4247 H       1  UNL1        0.0830
     41 H          -2.5457   -0.3740   -7.5814 H       1  UNL1        0.0830
     42 H          -3.5067   -1.7691   -5.8608 H       1  UNL1        0.2038
     43 H          -4.8113   -0.1075   -6.9123 H       1  UNL1        0.0867
     44 H          -4.3942    1.0470   -5.6512 H       1  UNL1        0.0867
     45 H          -7.0688   -0.8879   -6.6660 H       1  UNL1        0.0622
     46 H          -9.0247   -1.2943   -5.2212 H       1  UNL1        0.0618
     47 H          -8.7714   -1.3929   -2.7542 H       1  UNL1        0.0618
     48 H          -6.6081   -0.7735   -1.7112 H       1  UNL1        0.0618
     49 H          -4.8381    0.0593   -3.0730 H       1  UNL1        0.0622
     50 H          -1.8345   -1.4324   -4.2102 H       1  UNL1        0.0830
     51 H          -3.4306   -1.2934   -3.5415 H       1  UNL1        0.0830
     52 H          -1.9948    0.6868   -2.7463 H       1  UNL1        0.0517
     53 H          -3.2250    1.3056   -3.8158 H       1  UNL1        0.0517
     54 H           0.8423    5.1638   -5.3096 H       1  UNL1        0.1439
     55 H           2.4719    5.1373   -4.6711 H       1  UNL1        0.1439
     56 H           4.1856   -0.7507   -2.8255 H       1  UNL1        0.0489
     57 H           2.7524   -1.0390   -3.8207 H       1  UNL1        0.0489
     58 H           1.5111   -1.8605   -1.8046 H       1  UNL1        0.0609
     59 H           4.2362   -3.1998   -2.0570 H       1  UNL1        0.0255
     60 H           2.8177   -3.4840   -3.0945 H       1  UNL1        0.0255
     61 H           2.7750   -3.9063   -1.3692 H       1  UNL1        0.0255
@<TRIPOS>UNITY_ATOM_ATTR
11 1
charge 1
25 1
charge 1
27 1
charge -1
@<TRIPOS>BOND
     1     1     2    1
     2     2     3    1
     3     3     4    1
     4     4     5    1
     5     5     6   ar
     6     6     7   ar
     7     7     8    1
     8     8     9    1
     9     9    10    1
    10    10    11    1
    11    11    12    1
    12    12    13    1
    13    13    14   ar
    14    14    15   ar
    15    15    16   ar
    16    16    17   ar
    17    17    18   ar
    18    13    18   ar
    19    11    19    1
    20    19    20    1
    21     8    20    1
    22     7    21   ar
    23    21    22   ar
    24    22    23    1
    25    22    24   ar
    26     5    24   ar
    27    24    25    1
    28    25    26    2
    29    25    27    1
    30     4    28    1
    31    28    29    1
    32    29    30    1
    33    29    31    1
    34     2    31    1
    35     1    32    1
    36     1    33    1
    37     1    34    1
    38     2    35    1
    39     3    36    1
    40     3    37    1
    41     9    38    1
    42     9    39    1
    43    10    40    1
    44    10    41    1
    45    11    42    1
    46    12    43    1
    47    12    44    1
    48    14    45    1
    49    15    46    1
    50    16    47    1
    51    17    48    1
    52    18    49    1
    53    19    50    1
    54    19    51    1
    55    20    52    1
    56    20    53    1
    57    23    54    1
    58    23    55    1
    59    28    56    1
    60    28    57    1
    61    29    58    1
    62    30    59    1
    63    30    60    1
    64    30    61    1
