@<TRIPOS>MOLECULE
*****
 61 62 0 0 0
SMALL
GASTEIGER

@<TRIPOS>ATOM
      1 C           0.9773   -0.2790   -0.2549 C.3     1  UNL1       -0.0245
      2 C           2.4753   -0.1661   -0.0512 C.3     1  UNL1       -0.0348
      3 N           2.9229    1.1878    0.4953 N.4     1  UNL1        0.2359
      4 C           2.4307    1.5087    1.8999 C.3     1  UNL1       -0.0348
      5 C           0.9349    1.6887    2.0164 C.3     1  UNL1       -0.0245
      6 C           4.4661    1.2374    0.4511 C.3     1  UNL1       -0.0160
      7 C           5.0397    2.5938    0.8858 C.3     1  UNL1        0.0520
      8 N           6.4838    2.6459    0.9029 N.am    1  UNL1       -0.3063
      9 C           7.1061    3.7836    1.4177 C.2     1  UNL1        0.2442
     10 O           6.4905    4.7535    1.8102 O.2     1  UNL1       -0.2702
     11 C           8.5897    3.7706    1.4133 C.ar    1  UNL1        0.0368
     12 C           9.3890    4.3823    2.3906 C.ar    1  UNL1       -0.0479
     13 C          10.8130    4.4767    2.2360 C.ar    1  UNL1       -0.0398
     14 C          11.4534    3.9216    1.1150 C.ar    1  UNL1        0.0326
     15 N          12.9159    3.8710    0.9424 N.am    1  UNL1       -0.2966
     16 C          13.6281    3.1899   -0.1038 C.2     1  UNL1        0.1411
     17 S          12.9045    2.3082   -1.3568 S.2     1  UNL1       -0.0182
     18 N          15.0458    3.2608   -0.0590 N.am    1  UNL1       -0.2640
     19 C          15.8649    2.6874   -1.0588 C.2     1  UNL1        0.2424
     20 O          15.4676    2.1071   -2.0684 O.2     1  UNL1       -0.2704
     21 C          17.3387    2.7675   -0.9459 C.2     1  UNL1        0.0011
     22 C          18.0336    2.2126   -1.9677 C.2     1  UNL1       -0.0495
     23 C          19.4899    2.1154   -2.0230 C.ar    1  UNL1       -0.0185
     24 C          20.1930    2.3043   -3.2221 C.ar    1  UNL1       -0.0542
     25 C          21.5777    2.1048   -3.2670 C.ar    1  UNL1       -0.0548
     26 C          22.2741    1.7652   -2.1057 C.ar    1  UNL1        0.0156
     27 C          21.5638    1.5584   -0.9188 C.ar    1  UNL1        0.2737
     28 N          22.2557    1.1296    0.2979 N.pl3   1  UNL1        0.0796
     29 O          23.4837    0.9864    0.2433 O.2     1  UNL1        0.0414
     30 O          21.5669    0.9348    1.3111 O.co2   1  UNL1       -0.5760
     31 C          20.1784    1.7191   -0.8785 C.ar    1  UNL1        0.0227
     32 C          10.5702    3.4049    0.1634 C.ar    1  UNL1       -0.0398
     33 C           9.1986    3.2723    0.2943 C.ar    1  UNL1       -0.0479
     34 H           0.7290   -1.1751   -0.8286 H       1  UNL1        0.0281
     35 H           0.5634    0.5981   -0.7610 H       1  UNL1        0.0281
     36 H           0.4530   -0.4436    0.6821 H       1  UNL1        0.0281
     37 H           2.9655   -0.2878   -1.0237 H       1  UNL1        0.0812
     38 H           2.8445   -0.9310    0.6386 H       1  UNL1        0.0812
     39 H           2.5839    1.9184   -0.1488 H       1  UNL1        0.2034
     40 H           2.8574    2.4727    2.1764 H       1  UNL1        0.0812
     41 H           2.8150    0.7304    2.5646 H       1  UNL1        0.0812
     42 H           0.5375    2.3147    1.2121 H       1  UNL1        0.0281
     43 H           0.6888    2.1468    2.9775 H       1  UNL1        0.0281
     44 H           0.4080    0.7411    2.0530 H       1  UNL1        0.0281
     45 H           4.7701    1.0143   -0.5789 H       1  UNL1        0.0830
     46 H           4.8287    0.4340    1.1033 H       1  UNL1        0.0830
     47 H           4.7400    2.8373    1.9070 H       1  UNL1        0.0515
     48 H           4.6690    3.3902    0.2303 H       1  UNL1        0.0515
     49 H           7.0468    1.8336    0.6760 H       1  UNL1        0.1492
     50 H           8.9040    4.7908    3.2762 H       1  UNL1        0.0626
     51 H          11.3624    5.0234    3.0006 H       1  UNL1        0.0636
     52 H          13.4377    4.2889    1.7091 H       1  UNL1        0.1538
     53 H          15.5022    3.7064    0.7242 H       1  UNL1        0.1568
     54 H          17.8097    3.2258   -0.0943 H       1  UNL1        0.0670
     55 H          17.5322    1.7384   -2.8196 H       1  UNL1        0.0625
     56 H          19.6762    2.6123   -4.1313 H       1  UNL1        0.0623
     57 H          22.1137    2.2027   -4.2096 H       1  UNL1        0.0620
     58 H          23.3556    1.6548   -2.1436 H       1  UNL1        0.0685
     59 H          19.6248    1.5177    0.0351 H       1  UNL1        0.0691
     60 H          10.8559    3.1062   -0.8203 H       1  UNL1        0.0636
     61 H           8.6602    2.8398   -0.5438 H       1  UNL1        0.0626
@<TRIPOS>UNITY_ATOM_ATTR
3 1
charge 1
28 1
charge 1
30 1
charge -1
@<TRIPOS>BOND
     1     1     2    1
     2     2     3    1
     3     3     4    1
     4     4     5    1
     5     3     6    1
     6     6     7    1
     7     7     8    1
     8     8     9   am
     9     9    10    2
    10     9    11    1
    11    11    12   ar
    12    12    13   ar
    13    13    14   ar
    14    14    15    1
    15    15    16    1
    16    16    17    2
    17    16    18    1
    18    18    19   am
    19    19    20    2
    20    19    21    1
    21    21    22    2
    22    22    23    1
    23    23    24   ar
    24    24    25   ar
    25    25    26   ar
    26    26    27   ar
    27    27    28    1
    28    28    29    2
    29    28    30    1
    30    27    31   ar
    31    23    31   ar
    32    14    32   ar
    33    32    33   ar
    34    11    33   ar
    35     1    34    1
    36     1    35    1
    37     1    36    1
    38     2    37    1
    39     2    38    1
    40     3    39    1
    41     4    40    1
    42     4    41    1
    43     5    42    1
    44     5    43    1
    45     5    44    1
    46     6    45    1
    47     6    46    1
    48     7    47    1
    49     7    48    1
    50     8    49    1
    51    12    50    1
    52    13    51    1
    53    15    52    1
    54    18    53    1
    55    21    54    1
    56    22    55    1
    57    24    56    1
    58    25    57    1
    59    26    58    1
    60    31    59    1
    61    32    60    1
    62    33    61    1
