REMARK  5 active torsions:
REMARK  status: ('A' for Active; 'I' for Inactive)
REMARK       I    between atoms: C_2  and  N_3 
REMARK       I    between atoms: C_2  and  N_16 
REMARK    1  A    between atoms: N_3  and  C_4 
REMARK    2  A    between atoms: C_4  and  C_5 
REMARK    3  A    between atoms: C_5  and  N_6 
REMARK       I    between atoms: N_6  and  C_7 
REMARK       I    between atoms: C_7  and  N_9 
REMARK    4  A    between atoms: N_9  and  C_10 
REMARK    5  A    between atoms: N_16  and  C_17 
ROOT
ATOM      1  C   UNL d   1       2.181   2.496  -0.255  0.00  0.00     0.144 C 
ENDROOT
BRANCH   1   2
ATOM      2  N   UNL d   1       2.882   1.220  -0.114  0.00  0.00    -0.341 N 
ATOM      3  C   UNL d   1       2.236   0.011  -0.026  0.00  0.00     0.321 C 
ATOM      4  O   UNL d   1       1.003  -0.078  -0.028  0.00  0.00    -0.247 OA
ATOM      5  N   UNL d   1       3.005  -1.121   0.005  0.00  0.00    -0.293 N 
ATOM      6  H   UNL d   1       2.513  -1.985  -0.184  0.00  0.00     0.172 HD
ATOM      7  H   UNL d   1       3.857   1.201  -0.376  0.00  0.00     0.164 HD
BRANCH   5   8
ATOM      8  C   UNL d   1       4.395  -1.234   0.084  0.00  0.00     0.131 A 
ATOM      9  C   UNL d   1       5.119  -0.360   0.883  0.00  0.00     0.050 A 
ATOM     10  C   UNL d   1       6.505  -0.381   0.836  0.00  0.00     0.005 A 
ATOM     11  C   UNL d   1       7.135  -1.308   0.023  0.00  0.00     0.019 A 
ATOM     12  C   UNL d   1       6.343  -2.202  -0.681  0.00  0.00     0.119 A 
ATOM     13  N   UNL d   1       4.985  -2.201  -0.649  0.00  0.00    -0.243 NA
ENDBRANCH   5   8
ENDBRANCH   1   2
BRANCH   1  14
ATOM     14  C   UNL d   1       3.132   3.709  -0.353  0.00  0.00     0.144 C 
BRANCH  14  15
ATOM     15  N   UNL d   1       2.482   5.022  -0.467  0.00  0.00    -0.341 N 
ATOM     16  C   UNL d   1       3.253   6.165  -0.572  0.00  0.00     0.321 C 
ATOM     17  O   UNL d   1       4.484   6.087  -0.568  0.00  0.00    -0.247 OA
ATOM     18  N   UNL d   1       2.545   7.348  -0.680  0.00  0.00    -0.293 N 
ATOM     19  H   UNL d   1       1.609   7.402  -0.308  0.00  0.00     0.172 HD
ATOM     20  H   UNL d   1       1.474   5.087  -0.467  0.00  0.00     0.164 HD
BRANCH  18  21
ATOM     21  C   UNL d   1       3.206   8.600  -0.778  0.00  0.00     0.131 A 
ATOM     22  C   UNL d   1       4.312   8.739  -1.611  0.00  0.00     0.050 A 
ATOM     23  C   UNL d   1       4.982   9.959  -1.686  0.00  0.00     0.005 A 
ATOM     24  C   UNL d   1       4.544  11.018  -0.910  0.00  0.00     0.019 A 
ATOM     25  C   UNL d   1       3.417  10.815  -0.128  0.00  0.00     0.119 A 
ATOM     26  N   UNL d   1       2.713   9.646  -0.074  0.00  0.00    -0.243 NA
ENDBRANCH  18  21
ENDBRANCH  14  15
ENDBRANCH   1  14
TORSDOF 5
