REMARK  8 active torsions:
REMARK  status: ('A' for Active; 'I' for Inactive)
REMARK       I    between atoms: C_2  and  N_3 
REMARK       I    between atoms: C_2  and  N_12 
REMARK    1  A    between atoms: N_3  and  C_4 
REMARK    2  A    between atoms: C_4  and  C_5 
REMARK    3  A    between atoms: C_5  and  C_6 
REMARK    4  A    between atoms: C_6  and  N_7 
REMARK    5  A    between atoms: N_12  and  N_13 
REMARK       I    between atoms: N_13  and  C_14 
REMARK    6  A    between atoms: C_14  and  C_16 
REMARK    7  A    between atoms: C_21  and  C_22 
REMARK    8  A    between atoms: C_22  and  C_24 
ROOT
ATOM      1  N   UNL d   1       4.433  -1.179  -0.793  0.00  0.00    -0.262 N 
ATOM      2  C   UNL d   1       5.024  -2.405  -0.404  0.00  0.00     0.271 C 
ATOM      3  O   UNL d   1       4.408  -3.438  -0.242  0.00  0.00    -0.266 OA
ATOM      4  H   UNL d   1       4.958  -0.335  -0.664  0.00  0.00     0.190 HD
ENDROOT
BRANCH   1   5
ATOM      5  N   UNL d   1       2.992  -1.075  -0.793  0.00  0.00    -0.249 N 
ATOM      6  C   UNL d   1       2.208   0.078  -0.777  0.00  0.00     0.334 C 
ATOM      7  O   UNL d   1       0.992   0.017  -0.612  0.00  0.00    -0.246 OA
ATOM      8  N   UNL d   1       2.854   1.296  -0.856  0.00  0.00    -0.342 N 
ATOM      9  H   UNL d   1       3.836   1.242  -0.668  0.00  0.00     0.164 HD
ATOM     10  H   UNL d   1       2.509  -1.905  -0.438  0.00  0.00     0.192 HD
BRANCH   8  11
ATOM     11  C   UNL d   1       2.159   2.559  -0.509  0.00  0.00     0.126 C 
BRANCH  11  12
ATOM     12  C   UNL d   1       3.150   3.708  -0.289  0.00  0.00     0.040 C 
BRANCH  12  13
ATOM     13  C   UNL d   1       2.486   5.084  -0.211  0.00  0.00     0.130 C 
BRANCH  13  14
ATOM     14  N   UNL d   1       3.461   6.201  -0.200  0.00  0.00    -0.352 N 
ATOM     15  C   UNL d   1       4.853   6.116  -0.229  0.00  0.00     0.108 A 
ATOM     16  C   UNL d   1       5.338   7.390  -0.252  0.00  0.00     0.106 A 
ATOM     17  N   UNL d   1       4.243   8.216  -0.220  0.00  0.00    -0.361 N 
ATOM     18  C   UNL d   1       3.113   7.503  -0.181  0.00  0.00     0.182 A 
ATOM     19  H   UNL d   1       4.280   9.233  -0.224  0.00  0.00     0.166 HD
ENDBRANCH  13  14
ENDBRANCH  12  13
ENDBRANCH  11  12
ENDBRANCH   8  11
ENDBRANCH   1   5
BRANCH   2  20
ATOM     20  C   UNL d   1       6.512  -2.401  -0.130  0.00  0.00     0.047 A 
ATOM     21  C   UNL d   1       7.268  -3.365  -0.831  0.00  0.00     0.018 A 
ATOM     22  C   UNL d   1       8.656  -3.484  -0.651  0.00  0.00     0.001 A 
ATOM     23  C   UNL d   1       9.326  -2.617   0.200  0.00  0.00     0.001 A 
ATOM     24  C   UNL d   1       8.593  -1.686   0.930  0.00  0.00     0.016 A 
ATOM     25  C   UNL d   1       7.184  -1.592   0.807  0.00  0.00     0.030 A 
BRANCH  25  26
ATOM     26  C   UNL d   1       6.562  -0.595   1.716  0.00  0.00     0.193 C 
ATOM     27  O   UNL d   1       7.254   0.295   2.209  0.00  0.00    -0.287 OA
BRANCH  26  28
ATOM     28  C   UNL d   1       5.125  -0.527   1.997  0.00  0.00     0.015 C 
ATOM     29  C   UNL d   1       4.531   0.718   1.807  0.00  0.00     0.015 C 
ATOM     30  C   UNL d   1       3.168   0.854   2.028  0.00  0.00     0.001 C 
ATOM     31  C   UNL d   1       2.367  -0.272   2.205  0.00  0.00     0.000 C 
ATOM     32  C   UNL d   1       2.955  -1.526   2.328  0.00  0.00     0.001 C 
ATOM     33  C   UNL d   1       4.346  -1.643   2.312  0.00  0.00     0.015 C 
ENDBRANCH  26  28
ENDBRANCH  25  26
ENDBRANCH   2  20
TORSDOF 8
