@<TRIPOS>MOLECULE
*****
 66 70 0 0 0
SMALL
GASTEIGER

@<TRIPOS>ATOM
      1 C           1.0157    0.1048    0.1304 C.3     1  UNL1       -0.0442
      2 C           2.5362    0.0018    0.1415 C.3     1  UNL1        0.0464
      3 N           3.0279    1.2601   -0.4499 N.3     1  UNL1       -0.2334
      4 N           3.8213    1.1807   -1.6169 N.am    1  UNL1       -0.2465
      5 C           4.2265    0.0271   -2.2451 C.2     1  UNL1        0.2578
      6 O           4.9217    0.0407   -3.2628 O.2     1  UNL1       -0.2691
      7 C           3.7614   -1.2132   -1.6514 C.2     1  UNL1        0.0652
      8 C           2.9958   -1.2208   -0.5635 C.2     1  UNL1       -0.0111
      9 C           2.7233   -2.6282   -0.1693 C.3     1  UNL1        0.0818
     10 C           1.2553   -3.0214   -0.2228 C.3     1  UNL1       -0.0346
     11 O           3.4061   -3.4333   -1.1601 O.3     1  UNL1       -0.3472
     12 C           4.1116   -2.5714   -2.0746 C.3     1  UNL1        0.1565
     13 N           3.6376   -2.8778   -3.3988 N.am    1  UNL1       -0.2855
     14 C           4.3452   -3.7991   -4.1456 C.2     1  UNL1        0.2251
     15 O           5.3384   -4.3573   -3.6850 O.2     1  UNL1       -0.2748
     16 C           3.8605   -4.0196   -5.5871 C.3     1  UNL1        0.0756
     17 S           5.0167   -5.1779   -6.4560 S.3     1  UNL1       -0.0827
     18 C           4.3566   -5.3949   -8.1409 C.3     1  UNL1        0.2380
     19 N           4.8948   -6.6287   -8.7131 N.pl3   1  UNL1       -0.1248
     20 N           6.1130   -6.4426   -9.3069 N.2     1  UNL1        0.0392
     21 C           6.1732   -5.1710   -9.5816 C.2     1  UNL1        0.3188
     22 C           7.3052   -4.4904  -10.3269 C.3     1  UNL1        0.0842
     23 C           8.4006   -5.4774  -10.6398 C.ar    1  UNL1        0.0014
     24 C           8.3034   -6.5933  -11.4499 C.ar    1  UNL1       -0.0510
     25 C           9.4631   -7.4125  -11.3986 C.ar    1  UNL1       -0.0545
     26 C          10.4503   -6.8564  -10.6174 C.ar    1  UNL1       -0.0241
     27 S           9.9625   -5.3557   -9.9445 S.2     1  UNL1       -0.1010
     28 N           4.9984   -4.4795   -9.0921 N.pl3   1  UNL1       -0.1892
     29 C           4.4490   -3.2367   -9.6373 C.3     1  UNL1        0.0938
     30 C           3.0885   -3.4206  -10.3399 C.3     1  UNL1       -0.0137
     31 C           2.4851   -2.0643  -10.7547 C.3     1  UNL1       -0.0494
     32 C           2.3701   -1.0991   -9.5759 C.3     1  UNL1       -0.0528
     33 C           3.7257   -0.9107   -8.9063 C.3     1  UNL1       -0.0494
     34 C           4.2985   -2.2517   -8.4940 C.3     1  UNL1       -0.0137
     35 H           0.6667    1.0739    0.4954 H       1  UNL1        0.0248
     36 H           0.5676   -0.6280    0.8014 H       1  UNL1        0.0248
     37 H           0.6169   -0.0528   -0.8797 H       1  UNL1        0.0248
     38 H           2.8970   -0.0425    1.1774 H       1  UNL1        0.0521
     39 H           3.5465    1.7775    0.2637 H       1  UNL1        0.1449
     40 H           4.1018    2.0471   -2.0707 H       1  UNL1        0.1693
     41 H           3.1499   -2.8589    0.8140 H       1  UNL1        0.0642
     42 H           0.8218   -2.7621   -1.1962 H       1  UNL1        0.0258
     43 H           0.6713   -2.5424    0.5620 H       1  UNL1        0.0258
     44 H           1.1288   -4.0979   -0.0858 H       1  UNL1        0.0258
     45 H           5.1852   -2.7560   -1.9717 H       1  UNL1        0.0863
     46 H           2.8111   -2.4087   -3.7388 H       1  UNL1        0.1515
     47 H           3.8917   -3.0271   -6.0277 H       1  UNL1        0.0473
     48 H           2.8373   -4.4057   -5.5910 H       1  UNL1        0.0473
     49 H           3.2673   -5.3971   -8.1914 H       1  UNL1        0.1142
     50 H           4.8274   -7.4592   -8.1294 H       1  UNL1        0.1998
     51 H           7.6705   -3.6420   -9.7364 H       1  UNL1        0.0442
     52 H           6.9137   -4.0913  -11.2691 H       1  UNL1        0.0442
     53 H           7.3981   -6.8566  -11.9825 H       1  UNL1        0.0626
     54 H           9.5568   -8.3704  -11.8955 H       1  UNL1        0.0623
     55 H          11.4278   -7.2709  -10.4044 H       1  UNL1        0.0693
     56 H           5.1522   -2.8337  -10.3730 H       1  UNL1        0.0763
     57 H           2.3720   -3.9271   -9.6809 H       1  UNL1        0.0304
     58 H           3.1963   -4.0534  -11.2279 H       1  UNL1        0.0304
     59 H           1.4945   -2.2091  -11.2010 H       1  UNL1        0.0267
     60 H           3.1177   -1.6049  -11.5240 H       1  UNL1        0.0267
     61 H           1.6439   -1.4895   -8.8500 H       1  UNL1        0.0265
     62 H           1.9905   -0.1276   -9.9110 H       1  UNL1        0.0265
     63 H           3.6129   -0.2806   -8.0170 H       1  UNL1        0.0267
     64 H           4.4176   -0.4067   -9.5881 H       1  UNL1        0.0267
     65 H           3.5718   -2.6848   -7.8113 H       1  UNL1        0.0304
     66 H           5.2523   -2.1253   -7.9722 H       1  UNL1        0.0304
@<TRIPOS>BOND
     1     1     2    1
     2     2     3    1
     3     3     4    1
     4     4     5   am
     5     5     6    2
     6     5     7    1
     7     7     8    2
     8     2     8    1
     9     8     9    1
    10     9    10    1
    11     9    11    1
    12    11    12    1
    13     7    12    1
    14    13    14   am
    15    14    15    2
    16    14    16    1
    17    16    17    1
    18    17    18    1
    19    18    19    1
    20    19    20    1
    21    20    21    2
    22    21    22    1
    23    22    23    1
    24    23    24   ar
    25    24    25   ar
    26    25    26   ar
    27    26    27   ar
    28    23    27   ar
    29    21    28    1
    30    18    28    1
    31    28    29    1
    32    29    30    1
    33    30    31    1
    34    31    32    1
    35    32    33    1
    36    33    34    1
    37    29    34    1
    38    12    13    1
    39     1    35    1
    40     1    36    1
    41     1    37    1
    42     2    38    1
    43     3    39    1
    44     4    40    1
    45     9    41    1
    46    10    42    1
    47    10    43    1
    48    10    44    1
    49    12    45    1
    50    13    46    1
    51    16    47    1
    52    16    48    1
    53    18    49    1
    54    19    50    1
    55    22    51    1
    56    22    52    1
    57    24    53    1
    58    25    54    1
    59    26    55    1
    60    29    56    1
    61    30    57    1
    62    30    58    1
    63    31    59    1
    64    31    60    1
    65    32    61    1
    66    32    62    1
    67    33    63    1
    68    33    64    1
    69    34    65    1
    70    34    66    1
