REMARK  8 active torsions:
REMARK  status: ('A' for Active; 'I' for Inactive)
REMARK    1  A    between atoms: C_2  and  C_4 
REMARK    2  A    between atoms: C_4  and  C_5 
REMARK       I    between atoms: C_5  and  N_7 
REMARK    3  A    between atoms: N_7  and  C_8 
REMARK    4  A    between atoms: C_8  and  N_10 
REMARK    5  A    between atoms: N_10  and  N_11 
REMARK       I    between atoms: N_11  and  C_12 
REMARK    6  A    between atoms: C_12  and  C_14 
REMARK    7  A    between atoms: C_14  and  O_15 
REMARK    8  A    between atoms: O_15  and  C_16 
ROOT
ATOM      1  N   UNL d   1       7.413   0.304   4.020  0.00  0.00    -0.273 N 
ATOM      2  H   UNL d   1       6.916   0.368   4.908  0.00  0.00     0.189 HD
ENDROOT
BRANCH   1   3
ATOM      3  C   UNL d   1       6.838   0.193   2.744  0.00  0.00     0.193 C 
ATOM      4  S   UNL d   1       7.869   0.102   1.402  0.00  0.00    -0.039 SA
BRANCH   3   5
ATOM      5  N   UNL d   1       5.421   0.173   2.700  0.00  0.00    -0.303 N 
ATOM      6  C   UNL d   1       4.659   0.004   1.535  0.00  0.00     0.224 C 
ATOM      7  O   UNL d   1       5.176  -0.274   0.447  0.00  0.00    -0.273 OA
ATOM      8  H   UNL d   1       4.913   0.276   3.569  0.00  0.00     0.171 HD
BRANCH   6   9
ATOM      9  C   UNL d   1       3.123   0.100   1.589  0.00  0.00     0.107 C 
BRANCH   9  10
ATOM     10  C   UNL d   1       2.521   0.004   0.143  0.00  0.00    -0.014 C 
ATOM     11  C   UNL d   1       0.990  -0.043   0.137  0.00  0.00     0.010 C 
ATOM     12  C   UNL d   1       2.963   1.178  -0.748  0.00  0.00     0.010 C 
ENDBRANCH   9  10
ENDBRANCH   6   9
ENDBRANCH   3   5
ENDBRANCH   1   3
BRANCH   1  13
ATOM     13  N   UNL d   1       8.868   0.306   4.135  0.00  0.00    -0.266 N 
ATOM     14  C   UNL d   1       9.500   0.398   5.367  0.00  0.00     0.260 C 
ATOM     15  O   UNL d   1       8.839   0.494   6.405  0.00  0.00    -0.269 OA
ATOM     16  H   UNL d   1       9.371   0.225   3.249  0.00  0.00     0.190 HD
BRANCH  14  17
ATOM     17  C   UNL d   1      11.062   0.385   5.332  0.00  0.00     0.280 C 
BRANCH  17  18
ATOM     18  O   UNL d   1      11.595   0.375   6.662  0.00  0.00    -0.342 OA
BRANCH  18  19
ATOM     19  C   UNL d   1      12.948   0.506   6.836  0.00  0.00     0.069 A 
ATOM     20  C   UNL d   1      13.488  -0.159   7.946  0.00  0.00     0.037 A 
ATOM     21  C   UNL d   1      14.831   0.009   8.304  0.00  0.00     0.003 A 
ATOM     22  C   UNL d   1      15.663   0.806   7.524  0.00  0.00     0.000 A 
ATOM     23  C   UNL d   1      15.136   1.469   6.416  0.00  0.00     0.003 A 
ATOM     24  C   UNL d   1      13.780   1.331   6.080  0.00  0.00     0.037 A 
ENDBRANCH  18  19
ENDBRANCH  17  18
ENDBRANCH  14  17
ENDBRANCH   1  13
TORSDOF 8
