REMARK  4 active torsions:
REMARK  status: ('A' for Active; 'I' for Inactive)
REMARK    1  A    between atoms: C_3  and  C_4 
REMARK    2  A    between atoms: C_4  and  C_5 
REMARK    3  A    between atoms: C_4  and  C_12 
REMARK    4  A    between atoms: C_19  and  O_20 
ROOT
ATOM      1  C   UNL d   1       2.883  -2.478  -0.127  0.00  0.00     0.095 C 
ENDROOT
BRANCH   1   2
ATOM      2  C   UNL d   1       3.260  -1.020  -0.006  0.00  0.00     0.010 C 
ATOM      3  C   UNL d   1       2.449   0.047   0.056  0.00  0.00     0.060 C 
ATOM      4  C   UNL d   1       0.959   0.081   0.005  0.00  0.00     0.072 C 
ATOM      5  N   UNL d   1       3.138   1.229   0.122  0.00  0.00    -0.157 NA
ATOM      6  N   UNL d   1       4.370   0.996   0.240  0.00  0.00    -0.155 NA
ATOM      7  C   UNL d   1       4.635  -0.455   0.062  0.00  0.00     0.296 C 
BRANCH   7   8
ATOM      8  O   UNL d   1       5.361  -0.654  -1.129  0.00  0.00    -0.369 OA
ATOM      9  H   UNL d   1       4.746  -0.424  -1.842  0.00  0.00     0.212 HD
ENDBRANCH   7   8
ENDBRANCH   1   2
BRANCH   1  10
ATOM     10  C   UNL d   1       2.045  -2.789  -1.379  0.00  0.00    -0.045 A 
ATOM     11  C   UNL d   1       1.444  -4.043  -1.559  0.00  0.00     0.009 A 
ATOM     12  C   UNL d   1       0.682  -4.301  -2.704  0.00  0.00     0.007 A 
ATOM     13  C   UNL d   1       0.470  -3.302  -3.664  0.00  0.00    -0.062 A 
ATOM     14  C   UNL d   1      -0.303  -3.558  -4.915  0.00  0.00     0.048 C 
ATOM     15  C   UNL d   1       1.017  -2.042  -3.471  0.00  0.00     0.007 A 
ATOM     16  C   UNL d   1       1.813  -1.808  -2.364  0.00  0.00     0.009 A 
ENDBRANCH   1  10
BRANCH   1  17
ATOM     17  C   UNL d   1       4.051  -3.441  -0.135  0.00  0.00     0.050 A 
ATOM     18  C   UNL d   1       5.089  -3.627  -1.113  0.00  0.00     0.063 A 
ATOM     19  C   UNL d   1       5.314  -2.953  -2.414  0.00  0.00     0.073 C 
ATOM     20  N   UNL d   1       5.991  -4.530  -0.716  0.00  0.00    -0.176 NA
ATOM     21  N   UNL d   1       5.506  -4.947   0.463  0.00  0.00    -0.243 N 
ATOM     22  C   UNL d   1       4.338  -4.361   0.875  0.00  0.00     0.270 A 
ATOM     23  H   UNL d   1       6.007  -5.656   0.976  0.00  0.00     0.192 HD
ATOM     24  O   UNL d   1       3.862  -4.734   1.937  0.00  0.00    -0.266 OA
ENDBRANCH   1  17
TORSDOF 4
