@<TRIPOS>MOLECULE
*****
 52 52 0 0 0
SMALL
GASTEIGER

@<TRIPOS>ATOM
      1 C          14.1185   17.9828    0.0343 C.3     1  UNL1       -0.0653
      2 C          12.9520   17.0142    0.0385 C.3     1  UNL1       -0.0559
      3 C          13.3284   15.7233   -0.6871 C.3     1  UNL1       -0.0532
      4 C          12.1559   14.7552   -0.6866 C.3     1  UNL1       -0.0514
      5 C          12.4752   13.4498   -1.4318 C.3     1  UNL1       -0.0347
      6 C          11.2596   12.4963   -1.4548 C.3     1  UNL1        0.0218
      7 C          10.0720   13.1821   -2.1375 C.3     1  UNL1       -0.0466
      8 N          11.5464   11.2243   -2.1195 N.am    1  UNL1       -0.2968
      9 C          10.6108   10.2139   -2.1258 C.2     1  UNL1        0.2999
     10 O           9.4928   10.2996   -1.6205 O.2     1  UNL1       -0.2529
     11 N          11.0317    9.0850   -2.7519 N.am    1  UNL1       -0.2968
     12 C          10.1304    7.9667   -3.0310 C.3     1  UNL1        0.0423
     13 C          10.7654    6.7925   -3.8197 C.3     1  UNL1        0.1046
     14 O          10.5192    5.5418   -3.1650 O.3     1  UNL1       -0.3869
     15 C          12.2752    6.9589   -4.0415 C.3     1  UNL1        0.1169
     16 O          12.4880    8.2110   -4.7132 O.3     1  UNL1       -0.4893
     17 C          13.7786    8.5679   -4.9578 C.ar    1  UNL1        0.1210
     18 C          14.0913    9.9293   -4.8452 C.ar    1  UNL1       -0.0135
     19 C          15.3488   10.3963   -5.2305 C.ar    1  UNL1        0.0190
     20 C          16.3061    9.4780   -5.6754 C.ar    1  UNL1        0.2734
     21 N          17.6693    9.9293   -5.9718 N.pl3   1  UNL1        0.0796
     22 O          17.9217   11.1335   -5.8271 O.2     1  UNL1        0.0414
     23 O          18.4938    9.0728   -6.3208 O.co2   1  UNL1       -0.5760
     24 C          15.9895    8.1188   -5.7968 C.ar    1  UNL1        0.0190
     25 C          14.7212    7.6684   -5.4383 C.ar    1  UNL1       -0.0135
     26 H          13.8519   18.9042    0.5591 H       1  UNL1        0.0230
     27 H          14.4029   18.2396   -0.9911 H       1  UNL1        0.0230
     28 H          14.9870   17.5401    0.5317 H       1  UNL1        0.0230
     29 H          12.0868   17.4835   -0.4464 H       1  UNL1        0.0263
     30 H          12.6606   16.7930    1.0722 H       1  UNL1        0.0263
     31 H          14.1950   15.2591   -0.2047 H       1  UNL1        0.0265
     32 H          13.6090   15.9551   -1.7219 H       1  UNL1        0.0265
     33 H          11.3175   15.2756   -1.1598 H       1  UNL1        0.0266
     34 H          11.8546   14.5281    0.3434 H       1  UNL1        0.0266
     35 H          13.3329   12.9615   -0.9507 H       1  UNL1        0.0283
     36 H          12.7884   13.6835   -2.4577 H       1  UNL1        0.0283
     37 H          10.9948   12.2486   -0.4190 H       1  UNL1        0.0496
     38 H          10.3296   13.4497   -3.1676 H       1  UNL1        0.0247
     39 H           9.7593   14.0821   -1.6058 H       1  UNL1        0.0247
     40 H           9.1879   12.5449   -2.1724 H       1  UNL1        0.0247
     41 H          12.4804   11.0471   -2.4567 H       1  UNL1        0.1505
     42 H          11.8501    9.1796   -3.3353 H       1  UNL1        0.1503
     43 H           9.2629    8.3469   -3.5872 H       1  UNL1        0.0489
     44 H           9.7491    7.6160   -2.0660 H       1  UNL1        0.0489
     45 H          10.2736    6.7281   -4.8000 H       1  UNL1        0.0643
     46 H          10.8682    5.6000   -2.2582 H       1  UNL1        0.2100
     47 H          12.6517    6.1057   -4.6139 H       1  UNL1        0.0723
     48 H          12.7798    6.9665   -3.0658 H       1  UNL1        0.0723
     49 H          13.3590   10.6402   -4.4711 H       1  UNL1        0.0656
     50 H          15.5600   11.4636   -5.1918 H       1  UNL1        0.0686
     51 H          16.7066    7.3996   -6.1840 H       1  UNL1        0.0686
     52 H          14.4767    6.6211   -5.5768 H       1  UNL1        0.0656
@<TRIPOS>UNITY_ATOM_ATTR
21 1
charge 1
23 1
charge -1
@<TRIPOS>BOND
     1     1     2    1
     2     2     3    1
     3     3     4    1
     4     4     5    1
     5     5     6    1
     6     6     7    1
     7     6     8    1
     8     8     9   am
     9     9    10    2
    10     9    11   am
    11    11    12    1
    12    13    15    1
    13    15    16    1
    14    16    17    1
    15    17    18   ar
    16    18    19   ar
    17    19    20   ar
    18    20    21    1
    19    21    22    2
    20    21    23    1
    21    20    24   ar
    22    24    25   ar
    23    17    25   ar
    24    13    14    1
    25    13    12    1
    26     1    26    1
    27     1    27    1
    28     1    28    1
    29     2    29    1
    30     2    30    1
    31     3    31    1
    32     3    32    1
    33     4    33    1
    34     4    34    1
    35     5    35    1
    36     5    36    1
    37     6    37    1
    38     7    38    1
    39     7    39    1
    40     7    40    1
    41     8    41    1
    42    11    42    1
    43    12    43    1
    44    12    44    1
    45    13    45    1
    46    14    46    1
    47    15    47    1
    48    15    48    1
    49    18    49    1
    50    19    50    1
    51    24    51    1
    52    25    52    1
