REMARK  6 active torsions:
REMARK  status: ('A' for Active; 'I' for Inactive)
REMARK    1  A    between atoms: O_2  and  C_3 
REMARK    2  A    between atoms: C_3  and  C_5 
REMARK    3  A    between atoms: C_8  and  C_9 
REMARK       I    between atoms: C_9  and  N_11 
REMARK    4  A    between atoms: N_11  and  N_12 
REMARK       I    between atoms: N_12  and  C_13 
REMARK    5  A    between atoms: C_13  and  C_15 
REMARK    6  A    between atoms: C_15  and  C_16 
ROOT
ATOM      1  C   UNL d   1       8.923  -1.272   0.703  0.00  0.00     0.270 C 
ATOM      2  O   UNL d   1       9.528  -2.272   0.318  0.00  0.00    -0.266 OA
ATOM      3  N   UNL d   1       9.600  -0.139   1.137  0.00  0.00    -0.263 N 
ATOM      4  H   UNL d   1       9.157   0.723   1.446  0.00  0.00     0.190 HD
ENDROOT
BRANCH   3   5
ATOM      5  N   UNL d   1      11.027  -0.098   1.130  0.00  0.00    -0.267 N 
ATOM      6  C   UNL d   1      11.633   1.059   1.597  0.00  0.00     0.240 C 
ATOM      7  O   UNL d   1      10.935   2.002   1.982  0.00  0.00    -0.272 OA
ATOM      8  H   UNL d   1      11.514  -0.926   0.794  0.00  0.00     0.190 HD
BRANCH   6   9
ATOM      9  C   UNL d   1      13.179   1.091   1.585  0.00  0.00     0.143 C 
BRANCH   9  10
ATOM     10  C   UNL d   1      13.715   2.428   2.082  0.00  0.00    -0.049 A 
ATOM     11  C   UNL d   1      14.373   2.557   3.316  0.00  0.00     0.009 A 
ATOM     12  C   UNL d   1      14.590   3.827   3.867  0.00  0.00     0.024 A 
ATOM     13  C   UNL d   1      14.239   4.970   3.149  0.00  0.00     0.034 A 
ATOM     14 CL   UNL d   1      14.558   6.530   3.803  0.00  0.00    -0.084 Cl
ATOM     15  C   UNL d   1      13.653   4.856   1.893  0.00  0.00     0.024 A 
ATOM     16  C   UNL d   1      13.407   3.592   1.357  0.00  0.00     0.009 A 
ENDBRANCH   9  10
ENDBRANCH   6   9
ENDBRANCH   3   5
BRANCH   1  17
ATOM     17  C   UNL d   1       7.404  -1.239   0.674  0.00  0.00     0.033 A 
ATOM     18  C   UNL d   1       6.704  -2.355   0.174  0.00  0.00     0.018 A 
ATOM     19  C   UNL d   1       5.301  -2.333   0.016  0.00  0.00     0.018 A 
ATOM     20  C   UNL d   1       4.556  -1.216   0.418  0.00  0.00     0.039 A 
ATOM     21  C   UNL d   1       5.237  -0.117   0.951  0.00  0.00     0.018 A 
ATOM     22  C   UNL d   1       6.644  -0.131   1.080  0.00  0.00     0.018 A 
BRANCH  20  23
ATOM     23  C   UNL d   1       3.066  -1.283   0.414  0.00  0.00     0.292 C 
ATOM     24  O   UNL d   1       2.456  -2.306   0.714  0.00  0.00    -0.259 OA
BRANCH  23  25
ATOM     25  O   UNL d   1       2.500  -0.106   0.048  0.00  0.00    -0.323 OA
ATOM     26  C   UNL d   1       1.061  -0.120   0.037  0.00  0.00     0.213 C 
ENDBRANCH  23  25
ENDBRANCH  20  23
ENDBRANCH   1  17
TORSDOF 6
