@<TRIPOS>MOLECULE
*****
 61 62 0 0 0
SMALL
GASTEIGER

@<TRIPOS>ATOM
      1 C           1.0613    0.0850   -0.0012 C.3     1  UNL1       -0.0416
      2 C           2.5766    0.0762    0.0128 C.3     1  UNL1        0.0450
      3 O           3.0671    0.7475   -1.1476 O.3     1  UNL1       -0.3767
      4 C           4.4978    0.7399   -1.1719 C.3     1  UNL1        0.0817
      5 C           5.0007    1.4513   -2.4253 C.3     1  UNL1        0.1128
      6 O           6.4322    1.3805   -2.4711 O.3     1  UNL1       -0.4897
      7 C           7.0147    2.0918   -3.4868 C.ar    1  UNL1        0.1207
      8 C           8.1240    1.5240   -4.1034 C.ar    1  UNL1       -0.0192
      9 C           8.8071    2.2383   -5.1023 C.ar    1  UNL1       -0.0462
     10 C           8.3622    3.5068   -5.5543 C.ar    1  UNL1        0.0373
     11 C           9.0663    4.1216   -6.7389 C.2     1  UNL1        0.2495
     12 O          10.0043    3.4556   -7.1767 O.2     1  UNL1       -0.2698
     13 N           8.6440    5.3528   -7.3119 N.am    1  UNL1       -0.2627
     14 C           9.2019    5.9896   -8.4493 C.2     1  UNL1        0.1533
     15 S          10.4941    5.3938   -9.3607 S.2     1  UNL1       -0.0170
     16 N           8.6087    7.2169   -8.8124 N.am    1  UNL1       -0.2453
     17 N           9.1323    7.9278   -9.9649 N.am    1  UNL1       -0.2311
     18 C           8.6778    9.1800  -10.3563 C.2     1  UNL1        0.2601
     19 O           7.7751    9.7859   -9.7738 O.2     1  UNL1       -0.2687
     20 C           9.3281    9.7759  -11.5794 C.ar    1  UNL1        0.0383
     21 C           9.6493   11.1419  -11.6976 C.ar    1  UNL1       -0.0478
     22 C          10.1911   11.6748  -12.9047 C.ar    1  UNL1       -0.0398
     23 C          10.4636   10.8364  -13.9954 C.ar    1  UNL1        0.0334
     24 N          11.1329   11.3225  -15.1686 N.am    1  UNL1       -0.2853
     25 C          11.5245   10.5099  -16.2336 C.2     1  UNL1        0.2198
     26 O          11.2771    9.3065  -16.3154 O.2     1  UNL1       -0.2752
     27 C          12.3037   11.1553  -17.3843 C.3     1  UNL1        0.0303
     28 C          13.6457   11.7137  -16.9319 C.3     1  UNL1       -0.0544
     29 C          12.5591   10.0719  -18.4546 C.3     1  UNL1       -0.0544
     30 C          10.0814    9.4968  -13.8641 C.ar    1  UNL1       -0.0398
     31 C           9.5343    8.9678  -12.6894 C.ar    1  UNL1       -0.0478
     32 C           7.2760    4.0774   -4.8964 C.ar    1  UNL1       -0.0462
     33 C           6.6198    3.3774   -3.8648 C.ar    1  UNL1       -0.0192
     34 H           0.6670   -0.4265    0.8820 H       1  UNL1        0.0252
     35 H           0.6783   -0.4139   -0.8973 H       1  UNL1        0.0252
     36 H           0.6784    1.1104   -0.0148 H       1  UNL1        0.0252
     37 H           2.9378   -0.9578    0.0166 H       1  UNL1        0.0557
     38 H           2.9395    0.5877    0.9109 H       1  UNL1        0.0557
     39 H           4.8663   -0.2916   -1.1530 H       1  UNL1        0.0594
     40 H           4.8798    1.2518   -0.2800 H       1  UNL1        0.0594
     41 H           4.6324    2.4813   -2.3874 H       1  UNL1        0.0720
     42 H           4.5836    0.9710   -3.3183 H       1  UNL1        0.0720
     43 H           8.4550    0.5227   -3.8294 H       1  UNL1        0.0654
     44 H           9.6992    1.7813   -5.5353 H       1  UNL1        0.0626
     45 H           7.8541    5.8109   -6.8864 H       1  UNL1        0.1569
     46 H           7.8223    7.6718   -8.3528 H       1  UNL1        0.1718
     47 H           9.9304    7.4776  -10.4181 H       1  UNL1        0.1731
     48 H           9.4941   11.8047  -10.8473 H       1  UNL1        0.0626
     49 H          10.3824   12.7459  -12.9607 H       1  UNL1        0.0636
     50 H          11.4078   12.2985  -15.1779 H       1  UNL1        0.1548
     51 H          11.6901   11.9470  -17.8287 H       1  UNL1        0.0389
     52 H          14.2567   10.9331  -16.4645 H       1  UNL1        0.0237
     53 H          13.5207   12.5215  -16.2068 H       1  UNL1        0.0237
     54 H          14.2066   12.1093  -17.7870 H       1  UNL1        0.0237
     55 H          13.1478    9.2424  -18.0385 H       1  UNL1        0.0237
     56 H          13.1030   10.4650  -19.3174 H       1  UNL1        0.0237
     57 H          11.6153    9.6441  -18.8141 H       1  UNL1        0.0237
     58 H          10.1784    8.7887  -14.6760 H       1  UNL1        0.0636
     59 H           9.2553    7.9187  -12.6934 H       1  UNL1        0.0626
     60 H           6.9112    5.0653   -5.1429 H       1  UNL1        0.0626
     61 H           5.8008    3.8729   -3.3552 H       1  UNL1        0.0654
@<TRIPOS>BOND
     1     1     2    1
     2     2     3    1
     3     3     4    1
     4     4     5    1
     5     5     6    1
     6     6     7    1
     7     7     8   ar
     8     8     9   ar
     9     9    10   ar
    10    10    11    1
    11    11    12    2
    12    11    13   am
    13    13    14    1
    14    14    15    2
    15    14    16    1
    16    16    17    1
    17    17    18   am
    18    18    19    2
    19    18    20    1
    20    20    21   ar
    21    21    22   ar
    22    22    23   ar
    23    23    24    1
    24    24    25   am
    25    25    26    2
    26    25    27    1
    27    27    28    1
    28    27    29    1
    29    23    30   ar
    30    30    31   ar
    31    20    31   ar
    32    10    32   ar
    33    32    33   ar
    34     7    33   ar
    35     1    34    1
    36     1    35    1
    37     1    36    1
    38     2    37    1
    39     2    38    1
    40     4    39    1
    41     4    40    1
    42     5    41    1
    43     5    42    1
    44     8    43    1
    45     9    44    1
    46    13    45    1
    47    16    46    1
    48    17    47    1
    49    21    48    1
    50    22    49    1
    51    24    50    1
    52    27    51    1
    53    28    52    1
    54    28    53    1
    55    28    54    1
    56    29    55    1
    57    29    56    1
    58    29    57    1
    59    30    58    1
    60    31    59    1
    61    32    60    1
    62    33    61    1
