REMARK  7 active torsions:
REMARK  status: ('A' for Active; 'I' for Inactive)
REMARK    1  A    between atoms: C_8  and  N_9 
REMARK       I    between atoms: N_9  and  C_10 
REMARK    2  A    between atoms: C_10  and  C_12 
REMARK    3  A    between atoms: C_12  and  C_13 
REMARK    4  A    between atoms: C_13  and  C_14 
REMARK    5  A    between atoms: C_16  and  C_17 
REMARK    6  A    between atoms: C_17  and  S_18 
REMARK    7  A    between atoms: S_18  and  C_19 
ROOT
ATOM      1  C   UNL d   1      -8.356   0.143   0.171  0.00  0.00     0.173 A 
ATOM      2  N   UNL d   1      -9.311   1.038   0.191  0.00  0.00    -0.208 NA
ATOM      3  C   UNL d   1     -10.425   0.261   0.180  0.00  0.00     0.165 A 
ATOM      4  N   UNL d   1     -10.204  -1.058   0.200  0.00  0.00    -0.110 NA
ATOM      5  O   UNL d   1      -8.805  -1.140   0.179  0.00  0.00    -0.196 OA
ENDROOT
BRANCH   1   6
ATOM      6  C   UNL d   1      -6.922   0.403   0.137  0.00  0.00     0.098 C 
BRANCH   6   7
ATOM      7  C   UNL d   1      -6.001  -0.842   0.102  0.00  0.00     0.111 C 
BRANCH   7   8
ATOM      8  C   UNL d   1      -4.606  -0.281   0.043  0.00  0.00     0.222 C 
ATOM      9  N   UNL d   1      -3.507  -1.112   0.036  0.00  0.00    -0.327 N 
ATOM     10  H   UNL d   1      -3.678  -2.113   0.048  0.00  0.00     0.169 HD
ATOM     11  O   UNL d   1      -4.590   0.947  -0.003  0.00  0.00    -0.273 OA
BRANCH   9  12
ATOM     12  C   UNL d   1      -2.112  -0.718   0.013  0.00  0.00     0.040 A 
ATOM     13  C   UNL d   1      -1.140  -1.746  -0.003  0.00  0.00     0.032 A 
ATOM     14  C   UNL d   1       0.245  -1.459  -0.010  0.00  0.00     0.026 A 
ATOM     15  C   UNL d   1       0.689  -0.145   0.012  0.00  0.00     0.034 A 
ATOM     16  C   UNL d   1      -0.236   0.876   0.028  0.00  0.00     0.032 A 
ATOM     17 CL   UNL d   1       2.360   0.250   0.006  0.00  0.00    -0.084 Cl
ATOM     18  C   UNL d   1      -1.618   0.611   0.012  0.00  0.00    -0.034 A 
ATOM     19  C   UNL d   1      -2.433   1.861  -0.023  0.00  0.00     0.050 C 
ENDBRANCH   9  12
ENDBRANCH   7   8
ENDBRANCH   6   7
ENDBRANCH   1   6
BRANCH   3  20
ATOM     20  C   UNL d   1     -11.784   0.849   0.197  0.00  0.00     0.160 C 
BRANCH  20  21
ATOM     21  S   UNL d   1     -11.710   2.714   0.172  0.00  0.00    -0.115 SA
BRANCH  21  22
ATOM     22  C   UNL d   1     -13.444   3.173   0.287  0.00  0.00     0.247 A 
ATOM     23  N   UNL d   1     -14.209   2.451   1.327  0.00  0.00    -0.359 N 
ATOM     24  C   UNL d   1     -14.700   3.276   2.162  0.00  0.00     0.057 A 
ATOM     25  H   UNL d   1     -14.275   1.441   1.451  0.00  0.00     0.162 HD
ATOM     26  C   UNL d   1     -15.425   3.003   3.389  0.00  0.00     0.031 A 
ATOM     27  C   UNL d   1     -14.408   4.669   1.720  0.00  0.00     0.057 A 
ATOM     28  C   UNL d   1     -15.849   4.088   4.052  0.00  0.00     0.002 A 
ATOM     29  C   UNL d   1     -15.619   5.453   3.606  0.00  0.00     0.002 A 
ATOM     30  C   UNL d   1     -14.932   5.790   2.499  0.00  0.00     0.031 A 
ATOM     31  N   UNL d   1     -13.708   4.615   0.649  0.00  0.00    -0.359 N 
ATOM     32  H   UNL d   1     -13.373   5.437   0.138  0.00  0.00     0.162 HD
ENDBRANCH  21  22
ENDBRANCH  20  21
ENDBRANCH   3  20
TORSDOF 7
