REMARK  17 active torsions:
REMARK  status: ('A' for Active; 'I' for Inactive)
REMARK    1  A    between atoms: C_2  and  C_3 
REMARK       I    between atoms: C_2  and  N_18 
REMARK    2  A    between atoms: C_3  and  C_4 
REMARK    3  A    between atoms: C_4  and  C_5 
REMARK    4  A    between atoms: C_5  and  C_6 
REMARK    5  A    between atoms: C_6  and  O_8 
REMARK    6  A    between atoms: O_8  and  C_9 
REMARK    7  A    between atoms: C_9  and  C_10 
REMARK    8  A    between atoms: C_10  and  C_11 
REMARK    9  A    between atoms: C_11  and  C_12 
REMARK   10  A    between atoms: N_18  and  C_19 
REMARK   11  A    between atoms: C_19  and  N_21 
REMARK   12  A    between atoms: N_21  and  C_22 
REMARK   13  A    between atoms: C_27  and  O_28 
REMARK   14  A    between atoms: O_28  and  C_29 
REMARK   15  A    between atoms: C_29  and  C_30 
REMARK   16  A    between atoms: C_30  and  C_31 
REMARK   17  A    between atoms: C_31  and  C_32 
ROOT
ATOM      1  C   UNL d   1       4.511  -0.515  -1.384  0.00  0.00     0.178 C 
ATOM      2  S   UNL d   1       5.425   0.904  -1.382  0.00  0.00    -0.040 SA
ENDROOT
BRANCH   1   3
ATOM      3  N   UNL d   1       3.146  -0.606  -0.991  0.00  0.00    -0.304 N 
ATOM      4  C   UNL d   1       2.286   0.259  -0.290  0.00  0.00     0.223 C 
ATOM      5  O   UNL d   1       1.093  -0.041  -0.199  0.00  0.00    -0.273 OA
ATOM      6  H   UNL d   1       2.656  -1.463  -1.226  0.00  0.00     0.171 HD
BRANCH   4   7
ATOM      7  C   UNL d   1       2.904   1.447   0.481  0.00  0.00     0.103 C 
BRANCH   7   8
ATOM      8  C   UNL d   1       1.929   2.281   1.300  0.00  0.00     0.019 C 
BRANCH   8   9
ATOM      9  C   UNL d   1       2.666   3.395   2.090  0.00  0.00     0.111 C 
BRANCH   9  10
ATOM     10  C   UNL d   1       1.667   4.193   2.878  0.00  0.00     0.258 C 
ATOM     11  O   UNL d   1       0.442   4.008   2.841  0.00  0.00    -0.265 OA
BRANCH  10  12
ATOM     12  O   UNL d   1       2.269   5.151   3.625  0.00  0.00    -0.321 OA
BRANCH  12  13
ATOM     13  C   UNL d   1       1.329   6.010   4.285  0.00  0.00     0.179 C 
BRANCH  13  14
ATOM     14  C   UNL d   1       2.089   7.081   5.053  0.00  0.00     0.031 C 
BRANCH  14  15
ATOM     15  C   UNL d   1       1.118   8.032   5.737  0.00  0.00     0.041 C 
BRANCH  15  16
ATOM     16  C   UNL d   1       1.796   9.136   6.503  0.00  0.00    -0.058 A 
ATOM     17  C   UNL d   1       2.625   8.863   7.599  0.00  0.00     0.007 A 
ATOM     18  C   UNL d   1       3.069   9.903   8.417  0.00  0.00     0.001 A 
ATOM     19  C   UNL d   1       2.764  11.224   8.095  0.00  0.00     0.000 A 
ATOM     20  C   UNL d   1       1.993  11.507   6.970  0.00  0.00     0.001 A 
ATOM     21  C   UNL d   1       1.507  10.468   6.181  0.00  0.00     0.007 A 
ENDBRANCH  15  16
ENDBRANCH  14  15
ENDBRANCH  13  14
ENDBRANCH  12  13
ENDBRANCH  10  12
ENDBRANCH   9  10
ENDBRANCH   8   9
ENDBRANCH   7   8
ENDBRANCH   4   7
ENDBRANCH   1   3
BRANCH   1  22
ATOM     22  N   UNL d   1       5.090  -1.792  -1.563  0.00  0.00    -0.331 N 
ATOM     23  H   UNL d   1       4.582  -2.509  -2.070  0.00  0.00     0.168 HD
BRANCH  22  24
ATOM     24  C   UNL d   1       6.497  -2.019  -1.402  0.00  0.00     0.068 A 
ATOM     25  C   UNL d   1       7.235  -2.344  -2.556  0.00  0.00     0.032 A 
ATOM     26  C   UNL d   1       8.626  -2.499  -2.499  0.00  0.00     0.002 A 
ATOM     27  C   UNL d   1       9.300  -2.280  -1.302  0.00  0.00     0.003 A 
ATOM     28  C   UNL d   1       8.576  -1.981  -0.145  0.00  0.00     0.039 A 
ATOM     29  C   UNL d   1       7.173  -1.881  -0.162  0.00  0.00     0.095 A 
BRANCH  29  30
ATOM     30  O   UNL d   1       6.647  -1.690   1.106  0.00  0.00    -0.349 OA
BRANCH  30  31
ATOM     31  C   UNL d   1       5.235  -1.688   1.224  0.00  0.00     0.176 C 
BRANCH  31  32
ATOM     32  C   UNL d   1       4.683  -1.196   2.538  0.00  0.00     0.031 C 
BRANCH  32  33
ATOM     33  C   UNL d   1       3.149  -1.145   2.476  0.00  0.00     0.041 C 
BRANCH  33  34
ATOM     34  C   UNL d   1       2.611  -0.645   3.766  0.00  0.00    -0.058 A 
ATOM     35  C   UNL d   1       2.630   0.705   4.119  0.00  0.00     0.007 A 
ATOM     36  C   UNL d   1       2.342   1.155   5.392  0.00  0.00     0.001 A 
ATOM     37  C   UNL d   1       1.985   0.206   6.328  0.00  0.00     0.000 A 
ATOM     38  C   UNL d   1       1.917  -1.148   5.972  0.00  0.00     0.001 A 
ATOM     39  C   UNL d   1       2.209  -1.573   4.689  0.00  0.00     0.007 A 
ENDBRANCH  33  34
ENDBRANCH  32  33
ENDBRANCH  31  32
ENDBRANCH  30  31
ENDBRANCH  29  30
ENDBRANCH  22  24
ENDBRANCH   1  22
TORSDOF 17
