@<TRIPOS>MOLECULE
*****
 53 56 0 0 0
SMALL
GASTEIGER

@<TRIPOS>ATOM
      1 O           7.6361    1.4112    2.4411 O.2     0  UNK0       -0.2749
      2 C           6.5985    1.8334    1.8677 C.2     0  UNK0        0.2235
      3 C           5.2263    1.5937    2.4879 C.3     0  UNK0        0.0725
      4 S           5.0425    0.9753    4.2520 S.3     0  UNK0       -0.1207
      5 C           3.2048    0.9504    4.4873 C.3     0  UNK0        0.1171
      6 N           2.7345    0.0630    5.5471 N.3     0  UNK0       -0.2318
      7 N           2.4969    0.8126    6.8046 N.3     0  UNK0       -0.2259
      8 C           2.7382    2.2497    6.6133 C.3     0  UNK0        0.1351
      9 N           2.0343    3.3235    7.2509 N.pl3   0  UNK0       -0.3192
     10 C           2.1476    3.4177    8.6099 C.ar    0  UNK0        0.0316
     11 C           3.0369    2.5564    9.2693 C.ar    0  UNK0       -0.0406
     12 C           3.1519    2.5075   10.6303 C.ar    0  UNK0       -0.0573
     13 C           2.4241    3.4160   11.3661 C.ar    0  UNK0       -0.0263
     14 C           1.5936    4.3405   10.7260 C.ar    0  UNK0        0.1251
     15 F           0.9271    5.2331   11.4672 F       0  UNK0       -0.2054
     16 C           1.4400    4.3524    9.3467 C.ar    0  UNK0       -0.0055
     17 S           2.4230    2.4939    4.9752 S.3     0  UNK0       -0.0911
     18 N           6.7544    2.5309    0.6851 N.am    1  TRP1       -0.3064
     19 CA          5.8507    3.1695   -0.3611 C.3     1  TRP1        0.0666
     20 CB          5.0627    4.3986    0.0914 C.3     1  TRP1       -0.0019
     21 CG          3.9770    4.0799    1.0403 C.ar    1  TRP1       -0.0203
     22 CD1         3.8826    4.6448    2.2928 C.ar    1  TRP1        0.0060
     23 NE1         2.8215    4.0329    2.8893 N.ar    1  TRP1       -0.3604
     24 CE2         2.2687    3.0000    2.0969 C.ar    1  TRP1        0.0467
     25 CZ2         1.3394    1.9341    2.3660 C.ar    1  TRP1       -0.0378
     26 CH2         1.4570    0.7268    1.6674 C.ar    1  TRP1       -0.0598
     27 CZ3         2.2216    0.6901    0.5318 C.ar    1  TRP1       -0.0611
     28 CE3         2.8905    1.8484    0.1069 C.ar    1  TRP1       -0.0523
     29 CD2         3.0329    2.9847    0.9475 C.ar    1  TRP1        0.0029
     30 C           6.5788    3.7223   -1.6369 C.2     1  TRP1        0.0623
     31 O           7.8337    3.5567   -1.6326 O.co2   1  TRP1       -0.5479
     32 OXT         5.8393    4.2239   -2.5333 O.co2   1  TRP1       -0.5479
     33 H           4.6469    0.9847    1.7967 H       0  UNK0        0.0472
     34 H           4.8944    2.5924    2.6363 H       0  UNK0        0.0472
     35 H           2.8227    0.4914    3.5894 H       0  UNK0        0.0707
     36 H           3.3432   -0.7442    5.6089 H       0  UNK0        0.1427
     37 H           3.1361    0.4849    7.5174 H       0  UNK0        0.1435
     38 H           3.8067    2.4847    6.6598 H       0  UNK0        0.0801
     39 H           1.3571    3.8460    6.7082 H       0  UNK0        0.1484
     40 H           3.6796    1.8765    8.7287 H       0  UNK0        0.0636
     41 H           3.8169    1.7676   11.0574 H       0  UNK0        0.0619
     42 H           2.5190    3.4147   12.4406 H       0  UNK0        0.0646
     43 H           0.7815    5.0765    8.8746 H       0  UNK0        0.0665
     44 H           7.7142    2.5829    0.3441 H       1  TRP1        0.1494
     45 HA          5.2342    2.3710   -0.7530 H       1  TRP1        0.0563
     46 HB1         4.5352    4.9159   -0.7191 H       1  TRP1        0.0335
     47 HB2         5.7518    5.1369    0.5274 H       1  TRP1        0.0335
     48 HD1         4.5739    5.2847    2.8472 H       1  TRP1        0.0810
     49 HE1         2.7940    3.9974    3.9040 H       1  TRP1        0.1653
     50 HZ2         0.7483    1.8627    3.2802 H       1  TRP1        0.0638
     51 HH2         1.0447   -0.1947    2.0878 H       1  TRP1        0.0618
     52 HZ3         2.3600   -0.2470    0.0001 H       1  TRP1        0.0618
     53 HE3         3.4773    1.7549   -0.7920 H       1  TRP1        0.0624
@<TRIPOS>UNITY_ATOM_ATTR
32 1
charge -1
@<TRIPOS>BOND
     1     1     2    2
     2     2     3    1
     3     3     4    1
     4     5     6    1
     5     6     7    1
     6     7     8    1
     7     9    10    1
     8    10    11   ar
     9    11    12   ar
    10    12    13   ar
    11    13    14   ar
    12    14    15    1
    13    14    16   ar
    14    10    16   ar
    15     8    17    1
    16     5    17    1
    17     2    18   am
    18    18    19    1
    19    19    20    1
    20    20    21    1
    21    21    22   ar
    22    22    23   ar
    23    23    24   ar
    24    24    25   ar
    25    25    26   ar
    26    26    27   ar
    27    27    28   ar
    28    28    29   ar
    29    21    29   ar
    30    24    29   ar
    31    19    30    1
    32    30    31   ar
    33    30    32   ar
    34     8     9    1
    35     5     4    1
    36     3    33    1
    37     3    34    1
    38     5    35    1
    39     6    36    1
    40     7    37    1
    41     8    38    1
    42     9    39    1
    43    11    40    1
    44    12    41    1
    45    13    42    1
    46    16    43    1
    47    18    44    1
    48    19    45    1
    49    20    46    1
    50    20    47    1
    51    22    48    1
    52    23    49    1
    53    25    50    1
    54    26    51    1
    55    27    52    1
    56    28    53    1
