@<TRIPOS>MOLECULE
*****
 45 46 0 0 0
SMALL
GASTEIGER

@<TRIPOS>ATOM
      1 C           1.0228   -0.1934   -0.0496 C.3     1  UNL1       -0.0251
      2 C           2.5368    0.0120   -0.0987 C.2     1  UNL1        0.0237
      3 C           3.1013    1.2210   -0.3553 C.2     1  UNL1        0.0184
      4 C           2.3490    2.4860   -0.6174 C.2     1  UNL1        0.2426
      5 O           1.1190    2.5183   -0.6633 O.2     1  UNL1       -0.2704
      6 N           3.0974    3.6184   -0.8770 N.am    1  UNL1       -0.2817
      7 C           2.4477    4.8640   -1.0858 C.ar    1  UNL1        0.0401
      8 C           2.9027    5.7476   -2.0654 C.ar    1  UNL1       -0.0400
      9 C           2.2789    6.9932   -2.2332 C.ar    1  UNL1       -0.0536
     10 C           1.1785    7.3504   -1.4478 C.ar    1  UNL1        0.0157
     11 C           0.7230    6.4634   -0.4695 C.ar    1  UNL1        0.2749
     12 N          -0.3720    6.8497    0.4286 N.pl3   1  UNL1        0.0797
     13 O          -0.8818    7.9674    0.2646 O.2     1  UNL1        0.0414
     14 O          -0.7031    6.0534    1.3189 O.co2   1  UNL1       -0.5760
     15 C           1.3492    5.2278   -0.2925 C.ar    1  UNL1        0.0368
     16 N           3.2701   -1.1547    0.1528 N.pl3   1  UNL1       -0.2684
     17 N           4.6625   -1.2931    0.0799 N.am    1  UNL1       -0.2327
     18 C           5.2764   -2.5064    0.3562 C.2     1  UNL1        0.2636
     19 O           4.6769   -3.5695    0.5341 O.2     1  UNL1       -0.2685
     20 C           6.7762   -2.4760    0.4136 C.ar    1  UNL1        0.0797
     21 C           7.5025   -3.5400   -0.1448 C.ar    1  UNL1       -0.0460
     22 C           8.8922   -3.6092    0.0055 C.ar    1  UNL1       -0.0606
     23 C           9.5740   -2.5964    0.6786 C.ar    1  UNL1       -0.0553
     24 C           8.8734   -1.5165    1.2371 C.ar    1  UNL1       -0.0083
     25 C           9.6339   -0.4943    2.0324 C.3     1  UNL1       -0.0362
     26 C           7.4738   -1.4558    1.0822 C.ar    1  UNL1        0.1319
     27 O           6.7603   -0.3965    1.5827 O.3     1  UNL1       -0.5057
     28 H           0.4091    0.6836   -0.2285 H       1  UNL1        0.0290
     29 H           0.7092   -0.5440    0.9382 H       1  UNL1        0.0290
     30 H           0.7049   -0.9085   -0.8141 H       1  UNL1        0.0290
     31 H           4.1790    1.3143   -0.3654 H       1  UNL1        0.0685
     32 H           4.0827    3.5436   -1.0940 H       1  UNL1        0.1551
     33 H           3.6919    5.4581   -2.7549 H       1  UNL1        0.0636
     34 H           2.6524    7.6929   -2.9781 H       1  UNL1        0.0620
     35 H           0.6958    8.3131   -1.6036 H       1  UNL1        0.0685
     36 H           0.9942    4.5534    0.4844 H       1  UNL1        0.0704
     37 H           2.7526   -2.0247    0.3271 H       1  UNL1        0.1696
     38 H           5.2219   -0.4501    0.1106 H       1  UNL1        0.1730
     39 H           6.9899   -4.3215   -0.7019 H       1  UNL1        0.0626
     40 H           9.4452   -4.4654   -0.3775 H       1  UNL1        0.0618
     41 H          10.6581   -2.6618    0.7722 H       1  UNL1        0.0621
     42 H          10.7086   -0.7032    2.0497 H       1  UNL1        0.0279
     43 H           9.2811   -0.5036    3.0695 H       1  UNL1        0.0279
     44 H           9.4921    0.5017    1.6034 H       1  UNL1        0.0279
     45 H           7.3459    0.1854    2.0932 H       1  UNL1        0.2922
@<TRIPOS>UNITY_ATOM_ATTR
12 1
charge 1
14 1
charge -1
@<TRIPOS>BOND
     1     1     2    1
     2     2     3    2
     3     3     4    1
     4     4     5    2
     5     4     6   am
     6     6     7    1
     7     7     8   ar
     8     8     9   ar
     9     9    10   ar
    10    10    11   ar
    11    11    12    1
    12    12    13    2
    13    12    14    1
    14    11    15   ar
    15     7    15   ar
    16     2    16    1
    17    16    17    1
    18    17    18   am
    19    18    19    2
    20    18    20    1
    21    20    21   ar
    22    21    22   ar
    23    22    23   ar
    24    23    24   ar
    25    24    25    1
    26    24    26   ar
    27    20    26   ar
    28    26    27    1
    29     1    28    1
    30     1    29    1
    31     1    30    1
    32     3    31    1
    33     6    32    1
    34     8    33    1
    35     9    34    1
    36    10    35    1
    37    15    36    1
    38    16    37    1
    39    17    38    1
    40    21    39    1
    41    22    40    1
    42    23    41    1
    43    25    42    1
    44    25    43    1
    45    25    44    1
    46    27    45    1
