@<TRIPOS>MOLECULE
*****
 55 58 0 0 0
SMALL
GASTEIGER

@<TRIPOS>ATOM
      1 C           1.1842    0.6801    0.0745 C.3     1  UNL1        0.0790
      2 O           2.5252    0.2071   -0.0758 O.3     1  UNL1       -0.4914
      3 C           3.0538   -0.8495    0.6451 C.ar    1  UNL1        0.1621
      4 C           4.2785   -0.5156    1.2713 C.ar    1  UNL1       -0.0071
      5 C           5.1812   -1.5035    1.7170 C.ar    1  UNL1        0.0056
      6 C           6.5748   -1.1953    2.0487 C.2     1  UNL1        0.0916
      7 C           7.6047   -1.6706    1.3414 C.2     1  UNL1       -0.0215
      8 C           8.8208   -1.0933    1.9592 C.3     1  UNL1        0.1694
      9 C           9.5662   -0.1355    1.0044 C.2     1  UNL1        0.2625
     10 O           9.7495    1.0423    1.2702 O.2     1  UNL1       -0.2713
     11 N          10.0290   -0.7475   -0.1784 N.am    1  UNL1       -0.2049
     12 N          10.7007    0.0410   -1.0654 N.2     1  UNL1       -0.1875
     13 C          11.1727   -0.4674   -2.1595 C.2     1  UNL1        0.0563
     14 C          11.9908    0.3780   -3.0679 C.ar    1  UNL1        0.0360
     15 C          11.8004    0.3448   -4.4560 C.ar    1  UNL1       -0.0496
     16 C          12.6116    1.1319   -5.2876 C.ar    1  UNL1       -0.0609
     17 C          13.5656    1.9892   -4.7344 C.ar    1  UNL1       -0.0583
     18 C          13.7575    2.0214   -3.3536 C.ar    1  UNL1       -0.0195
     19 C          12.9883    1.2006   -2.5301 C.ar    1  UNL1        0.1255
     20 O          13.2634    1.1468   -1.1928 O.3     1  UNL1       -0.5061
     21 N           8.2377   -0.3055    3.0928 N.2     1  UNL1       -0.1699
     22 N           6.9716   -0.3881    3.0786 N.2     1  UNL1       -0.1532
     23 C           4.8021   -2.8442    1.6656 C.ar    1  UNL1       -0.0488
     24 C           3.5888   -3.1943    1.0914 C.ar    1  UNL1       -0.0156
     25 C           2.7223   -2.2243    0.5553 C.ar    1  UNL1        0.1624
     26 O           1.6643   -2.8578   -0.0559 O.3     1  UNL1       -0.4837
     27 C           0.6859   -1.9586   -0.5112 C.3     1  UNL1        0.1148
     28 C          -0.5915   -2.4955   -1.0580 C.ar    1  UNL1       -0.0104
     29 C          -1.6693   -1.6373   -1.3692 C.ar    1  UNL1       -0.0554
     30 C          -2.8946   -2.1873   -1.7212 C.ar    1  UNL1       -0.0614
     31 C          -3.0084   -3.5723   -1.8357 C.ar    1  UNL1       -0.0617
     32 C          -1.9204   -4.4056   -1.5710 C.ar    1  UNL1       -0.0614
     33 C          -0.7139   -3.8665   -1.1819 C.ar    1  UNL1       -0.0554
     34 H           1.1151    1.7181   -0.2546 H       1  UNL1        0.0660
     35 H           0.7857    0.5581    1.0847 H       1  UNL1        0.0660
     36 H           0.5083    0.2372   -0.6578 H       1  UNL1        0.0660
     37 H           4.5695    0.5324    1.3347 H       1  UNL1        0.0662
     38 H           7.5661   -2.3127    0.4790 H       1  UNL1        0.0620
     39 H           9.4988   -1.8583    2.3511 H       1  UNL1        0.0705
     40 H           9.9333   -1.7372   -0.3610 H       1  UNL1        0.1773
     41 H          11.0148   -1.5180   -2.4575 H       1  UNL1        0.0852
     42 H          11.0177   -0.2604   -4.9049 H       1  UNL1        0.0625
     43 H          12.5029    1.0858   -6.3700 H       1  UNL1        0.0618
     44 H          14.1659    2.6288   -5.3786 H       1  UNL1        0.0619
     45 H          14.5252    2.6654   -2.9360 H       1  UNL1        0.0654
     46 H          13.7712    1.9271   -0.9251 H       1  UNL1        0.2922
     47 H           5.4659   -3.6279    2.0247 H       1  UNL1        0.0625
     48 H           3.3382   -4.2496    0.9934 H       1  UNL1        0.0655
     49 H           1.1456   -1.4083   -1.3350 H       1  UNL1        0.0748
     50 H           0.3461   -1.4406    0.3892 H       1  UNL1        0.0748
     51 H          -1.5803   -0.5513   -1.3148 H       1  UNL1        0.0621
     52 H          -3.7603   -1.5497   -1.8865 H       1  UNL1        0.0618
     53 H          -3.9523   -4.0144   -2.1320 H       1  UNL1        0.0618
     54 H          -2.0002   -5.4829   -1.6363 H       1  UNL1        0.0618
     55 H           0.1356   -4.4989   -0.9439 H       1  UNL1        0.0621
@<TRIPOS>BOND
     1     1     2    1
     2     2     3    1
     3     3     4   ar
     4     4     5   ar
     5     5     6    1
     6     6     7    2
     7     7     8    1
     8     8     9    1
     9     9    10    2
    10     9    11   am
    11    11    12    1
    12    12    13    2
    13    13    14    1
    14    14    15   ar
    15    15    16   ar
    16    16    17   ar
    17    17    18   ar
    18    18    19   ar
    19    14    19   ar
    20    19    20    1
    21     8    21    1
    22    21    22    2
    23     6    22    1
    24     5    23   ar
    25    23    24   ar
    26    24    25   ar
    27     3    25   ar
    28    25    26    1
    29    26    27    1
    30    27    28    1
    31    28    29   ar
    32    29    30   ar
    33    30    31   ar
    34    31    32   ar
    35    32    33   ar
    36    28    33   ar
    37     1    34    1
    38     1    35    1
    39     1    36    1
    40     4    37    1
    41     7    38    1
    42     8    39    1
    43    11    40    1
    44    13    41    1
    45    15    42    1
    46    16    43    1
    47    17    44    1
    48    18    45    1
    49    20    46    1
    50    23    47    1
    51    24    48    1
    52    27    49    1
    53    27    50    1
    54    29    51    1
    55    30    52    1
    56    31    53    1
    57    32    54    1
    58    33    55    1
