REMARK  10 active torsions:
REMARK  status: ('A' for Active; 'I' for Inactive)
REMARK    1  A    between atoms: C_2  and  C_3 
REMARK       I    between atoms: C_2  and  N_30 
REMARK    2  A    between atoms: C_3  and  S_4 
REMARK    3  A    between atoms: S_4  and  C_5 
REMARK    4  A    between atoms: N_15  and  N_16 
REMARK       I    between atoms: N_16  and  C_17 
REMARK    5  A    between atoms: C_17  and  C_19 
REMARK    6  A    between atoms: C_19  and  C_20 
REMARK    7  A    between atoms: C_20  and  C_21 
REMARK    8  A    between atoms: N_30  and  C_31 
REMARK    9  A    between atoms: C_31  and  C_32 
REMARK   10  A    between atoms: C_32  and  C_33 
ROOT
ATOM      1  C   UNL d   1       2.764   1.119  -3.985  0.00  0.00     0.192 A 
ATOM      2  N   UNL d   1       2.998   2.287  -4.499  0.00  0.00    -0.222 NA
ATOM      3  C   UNL d   1       3.594   2.433  -5.737  0.00  0.00     0.075 A 
ATOM      4  C   UNL d   1       3.735   3.733  -6.247  0.00  0.00     0.032 C 
ATOM      5  C   UNL d   1       4.167   3.938  -7.554  0.00  0.00     0.002 C 
ATOM      6  C   UNL d   1       4.537   2.838  -8.322  0.00  0.00     0.001 C 
ATOM      7  C   UNL d   1       4.593   1.560  -7.739  0.00  0.00     0.019 C 
ATOM      8  C   UNL d   1       4.030   1.341  -6.468  0.00  0.00     0.063 A 
ATOM      9  C   UNL d   1       3.803  -0.018  -5.863  0.00  0.00     0.281 A 
ATOM     10  O   UNL d   1       4.224  -1.008  -6.467  0.00  0.00    -0.265 OA
ATOM     11  N   UNL d   1       3.101  -0.091  -4.616  0.00  0.00    -0.192 N 
ENDROOT
BRANCH  11  12
ATOM     12  N   UNL d   1       2.981  -1.566  -4.015  0.00  0.00    -0.258 N 
ATOM     13  C   UNL d   1       2.159  -1.992  -2.944  0.00  0.00     0.236 C 
ATOM     14  O   UNL d   1       1.280  -1.242  -2.467  0.00  0.00    -0.272 OA
ATOM     15  H   UNL d   1       3.329  -2.223  -4.724  0.00  0.00     0.190 HD
BRANCH  13  16
ATOM     16  C   UNL d   1       2.207  -3.475  -2.255  0.00  0.00     0.105 C 
BRANCH  16  17
ATOM     17  C   UNL d   1       1.592  -3.522  -0.592  0.00  0.00     0.023 C 
BRANCH  17  18
ATOM     18  C   UNL d   1       1.208  -4.894   0.588  0.00  0.00     0.006 C 
ATOM     19  C   UNL d   1      -0.114  -4.537   0.397  0.00  0.00     0.089 C 
ATOM     20  N   UNL d   1      -0.530  -5.825   0.351  0.00  0.00    -0.288 NA
ATOM     21  C   UNL d   1      -0.752  -5.788   1.678  0.00  0.00     0.001 C 
ATOM     22  H   UNL d   1       0.070  -6.564  -0.007  0.00  0.00     0.128 HD
ATOM     23  C   UNL d   1      -1.921  -5.234   2.339  0.00  0.00     0.020 C 
ATOM     24  C   UNL d   1       0.668  -5.802   2.098  0.00  0.00     0.042 C 
ATOM     25  C   UNL d   1      -2.090  -5.243   3.691  0.00  0.00     0.001 C 
ATOM     26  C   UNL d   1      -1.138  -5.978   4.300  0.00  0.00    -0.003 C 
ATOM     27  C   UNL d   1       0.105  -6.229   3.521  0.00  0.00    -0.009 C 
ENDBRANCH  17  18
ENDBRANCH  16  17
ENDBRANCH  13  16
ENDBRANCH  11  12
BRANCH   1  28
ATOM     28  S   UNL d   1       1.930   1.330  -2.481  0.00  0.00    -0.081 SA
BRANCH  28  29
ATOM     29  C   UNL d   1       3.038   0.597  -1.262  0.00  0.00     0.185 C 
BRANCH  29  30
ATOM     30  C   UNL d   1       2.274   0.210   0.017  0.00  0.00     0.227 C 
ATOM     31  O   UNL d   1       1.050   0.144   0.133  0.00  0.00    -0.273 OA
ATOM     32  N   UNL d   1       3.015  -0.111   1.127  0.00  0.00    -0.360 N 
ATOM     33  H   UNL d   1       2.442  -0.348   1.932  0.00  0.00     0.162 HD
BRANCH  32  34
ATOM     34  C   UNL d   1       4.457  -0.151   1.222  0.00  0.00     0.127 C 
BRANCH  34  35
ATOM     35  C   UNL d   1       4.964  -0.445   2.637  0.00  0.00     0.058 C 
BRANCH  35  36
ATOM     36  C   UNL d   1       6.473  -0.433   2.658  0.00  0.00    -0.057 A 
ATOM     37  C   UNL d   1       7.171   0.782   2.659  0.00  0.00     0.007 A 
ATOM     38  C   UNL d   1       8.550   0.800   2.444  0.00  0.00     0.001 A 
ATOM     39  C   UNL d   1       9.257  -0.397   2.363  0.00  0.00     0.000 A 
ATOM     40  C   UNL d   1       8.586  -1.609   2.506  0.00  0.00     0.001 A 
ATOM     41  C   UNL d   1       7.194  -1.631   2.591  0.00  0.00     0.007 A 
ENDBRANCH  35  36
ENDBRANCH  34  35
ENDBRANCH  32  34
ENDBRANCH  29  30
ENDBRANCH  28  29
ENDBRANCH   1  28
TORSDOF 10
