REMARK  6 active torsions:
REMARK  status: ('A' for Active; 'I' for Inactive)
REMARK       I    between atoms: C_2  and  N_3 
REMARK    1  A    between atoms: C_2  and  C_8 
REMARK    2  A    between atoms: N_3  and  C_4 
REMARK    3  A    between atoms: C_4  and  C_5 
REMARK    4  A    between atoms: C_5  and  C_6 
REMARK    5  A    between atoms: C_6  and  O_7 
REMARK    6  A    between atoms: C_10  and  C_11 
ROOT
ATOM      1  C   UNL d   1       3.030  -1.124  -0.754  0.00  0.00     0.264 A 
ATOM      2  N   UNL d   1       2.687  -1.694  -1.892  0.00  0.00    -0.195 NA
ATOM      3  C   UNL d   1       3.637  -2.677  -2.055  0.00  0.00     0.189 A 
ATOM      4  N   UNL d   1       4.537  -2.732  -1.058  0.00  0.00    -0.105 NA
ATOM      5  O   UNL d   1       4.149  -1.683  -0.202  0.00  0.00    -0.185 OA
ENDROOT
BRANCH   3   6
ATOM      6  C   UNL d   1       3.661  -3.516  -3.253  0.00  0.00     0.016 A 
ATOM      7  C   UNL d   1       3.745  -2.897  -4.508  0.00  0.00     0.016 A 
ATOM      8  C   UNL d   1       3.723  -3.644  -5.695  0.00  0.00     0.014 A 
ATOM      9  C   UNL d   1       3.573  -5.040  -5.627  0.00  0.00    -0.008 A 
ATOM     10  C   UNL d   1       3.455  -6.060  -6.610  0.00  0.00     0.030 A 
ATOM     11  C   UNL d   1       3.495  -5.650  -4.374  0.00  0.00     0.043 A 
ATOM     12  C   UNL d   1       3.286  -7.255  -5.952  0.00  0.00     0.089 A 
ATOM     13  N   UNL d   1       3.343  -7.003  -4.604  0.00  0.00    -0.365 N 
ATOM     14  H   UNL d   1       3.257  -7.706  -3.883  0.00  0.00     0.165 HD
ATOM     15  C   UNL d   1       3.555  -4.918  -3.170  0.00  0.00     0.045 A 
ENDBRANCH   3   6
BRANCH   1  16
ATOM     16  C   UNL d   1       2.297  -0.060  -0.074  0.00  0.00     0.296 C 
ATOM     17  O   UNL d   1       1.063  -0.008  -0.060  0.00  0.00    -0.264 OA
ATOM     18  N   UNL d   1       3.034   0.960   0.537  0.00  0.00    -0.354 N 
ATOM     19  H   UNL d   1       4.042   0.973   0.442  0.00  0.00     0.162 HD
BRANCH  18  20
ATOM     20  C   UNL d   1       2.346   2.128   1.085  0.00  0.00     0.125 C 
BRANCH  20  21
ATOM     21  C   UNL d   1       3.297   3.191   1.626  0.00  0.00     0.046 C 
BRANCH  21  22
ATOM     22  C   UNL d   1       2.543   4.371   2.235  0.00  0.00     0.165 C 
BRANCH  22  23
ATOM     23  O   UNL d   1       3.467   5.341   2.714  0.00  0.00    -0.401 OA
ATOM     24  H   UNL d   1       3.995   4.931   3.420  0.00  0.00     0.209 HD
ENDBRANCH  22  23
ENDBRANCH  21  22
ENDBRANCH  20  21
ENDBRANCH  18  20
ENDBRANCH   1  16
TORSDOF 6
