REMARK  10 active torsions:
REMARK  status: ('A' for Active; 'I' for Inactive)
REMARK    1  A    between atoms: O_2  and  C_3 
REMARK    2  A    between atoms: C_6  and  C_7 
REMARK       I    between atoms: C_7  and  N_9 
REMARK    3  A    between atoms: N_9  and  N_10 
REMARK    4  A    between atoms: N_10  and  C_11 
REMARK    5  A    between atoms: C_11  and  N_13 
REMARK    6  A    between atoms: N_13  and  C_14 
REMARK    7  A    between atoms: C_14  and  C_15 
REMARK    8  A    between atoms: C_15  and  C_16 
REMARK    9  A    between atoms: C_19  and  O_20 
REMARK   10  A    between atoms: C_22  and  O_23 
ROOT
ATOM      1  C   UNL d   1       5.756  -3.681   2.845  0.00  0.00     0.273 C 
ATOM      2  O   UNL d   1       6.800  -3.266   3.320  0.00  0.00    -0.266 OA
ATOM      3  N   UNL d   1       5.353  -5.008   2.992  0.00  0.00    -0.264 N 
ATOM      4  H   UNL d   1       4.477  -5.335   2.586  0.00  0.00     0.190 HD
ENDROOT
BRANCH   1   5
ATOM      5  C   UNL d   1       4.808  -2.736   2.090  0.00  0.00     0.070 A 
ATOM      6  C   UNL d   1       5.162  -1.379   1.998  0.00  0.00     0.023 A 
ATOM      7  C   UNL d   1       4.297  -0.425   1.409  0.00  0.00     0.041 A 
ATOM      8  C   UNL d   1       3.067  -0.784   0.827  0.00  0.00     0.104 A 
ATOM      9  C   UNL d   1       2.709  -2.145   0.892  0.00  0.00     0.136 A 
ATOM     10  C   UNL d   1       3.581  -3.120   1.508  0.00  0.00     0.120 A 
BRANCH   8  11
ATOM     11  O   UNL d   1       2.538   0.206   0.025  0.00  0.00    -0.353 OA
ATOM     12  C   UNL d   1       1.191   0.672   0.117  0.00  0.00     0.210 C 
ENDBRANCH   8  11
BRANCH   9  13
ATOM     13  O   UNL d   1       1.598  -2.736   0.383  0.00  0.00    -0.351 OA
ATOM     14  C   UNL d   1       0.550  -2.032  -0.183  0.00  0.00     0.210 C 
ENDBRANCH   9  13
BRANCH  10  15
ATOM     15  O   UNL d   1       3.320  -4.482   1.542  0.00  0.00    -0.352 OA
ATOM     16  C   UNL d   1       2.143  -5.003   0.927  0.00  0.00     0.210 C 
ENDBRANCH  10  15
ENDBRANCH   1   5
BRANCH   3  17
ATOM     17  N   UNL d   1       6.111  -5.978   3.718  0.00  0.00    -0.274 N 
ATOM     18  H   UNL d   1       6.977  -5.646   4.133  0.00  0.00     0.189 HD
BRANCH  17  19
ATOM     19  C   UNL d   1       5.637  -7.287   3.824  0.00  0.00     0.186 C 
ATOM     20  S   UNL d   1       4.188  -7.780   3.115  0.00  0.00    -0.040 SA
BRANCH  19  21
ATOM     21  N   UNL d   1       6.453  -8.142   4.563  0.00  0.00    -0.366 N 
ATOM     22  H   UNL d   1       7.330  -7.797   4.931  0.00  0.00     0.161 HD
BRANCH  21  23
ATOM     23  C   UNL d   1       6.146  -9.567   4.755  0.00  0.00     0.122 C 
BRANCH  23  24
ATOM     24  C   UNL d   1       7.172 -10.374   5.556  0.00  0.00     0.023 C 
BRANCH  24  25
ATOM     25  C   UNL d   1       6.757 -11.861   5.704  0.00  0.00    -0.021 C 
ATOM     26  C   UNL d   1       6.608 -12.556   4.348  0.00  0.00     0.009 C 
ATOM     27  C   UNL d   1       7.784 -12.624   6.545  0.00  0.00     0.009 C 
ENDBRANCH  24  25
ENDBRANCH  23  24
ENDBRANCH  21  23
ENDBRANCH  19  21
ENDBRANCH  17  19
ENDBRANCH   3  17
TORSDOF 10
