@<TRIPOS>MOLECULE
*****
 72 73 0 0 0
SMALL
GASTEIGER

@<TRIPOS>ATOM
      1 C           0.9348   -0.0827    0.1103 C.3     1  UNL1       -0.0652
      2 C           2.4420   -0.0743    0.0904 C.3     1  UNL1       -0.0545
      3 C           2.8807    0.7565   -1.0975 C.3     1  UNL1       -0.0376
      4 C           4.3593    0.7340   -1.1889 C.3     1  UNL1        0.0116
      5 N           4.8160    1.3395   -2.4361 N.am    1  UNL1       -0.3135
      6 C           6.1262    1.6726   -2.4003 C.2     1  UNL1        0.2384
      7 O           6.6107    1.2226   -1.3547 O.2     1  UNL1       -0.2734
      8 C           6.8807    2.6203   -3.4271 C.3     1  UNL1        0.1346
      9 C           6.3091    4.0493   -3.2426 C.ar    1  UNL1        0.0648
     10 C           7.1273    5.1330   -2.9324 C.ar    1  UNL1        0.1292
     11 O           8.3489    4.9661   -2.3483 O.3     1  UNL1       -0.5062
     12 C           6.7535    6.4595   -3.1421 C.ar    1  UNL1        0.0219
     13 C           5.4136    6.7446   -3.2073 C.ar    1  UNL1        0.1238
     14 O           4.9433    8.0184   -3.2191 O.3     1  UNL1       -0.5065
     15 C           4.5025    5.7114   -3.1755 C.ar    1  UNL1        0.0219
     16 C           4.9478    4.3900   -3.2964 C.ar    1  UNL1        0.1292
     17 O           3.9610    3.4501   -3.3874 O.3     1  UNL1       -0.5062
     18 N           8.5230    2.6104   -3.5146 N.am    1  UNL1       -0.2806
     19 C           9.3686    1.8646   -2.6013 C.2     1  UNL1        0.2169
     20 O          10.5981    1.8480   -2.6022 O.2     1  UNL1       -0.2756
     21 C           8.7872    1.0795   -1.4966 C.3     1  UNL1        0.0244
     22 C           9.6545    0.3570   -0.5103 C.3     1  UNL1       -0.0419
     23 C           8.7793   -0.3930    0.5268 C.3     1  UNL1       -0.0406
     24 C           9.1549   -1.8750    0.4736 C.3     1  UNL1       -0.0502
     25 C           8.5792   -2.6837    1.6233 C.3     1  UNL1       -0.0528
     26 C           8.9300   -2.0537    2.9648 C.3     1  UNL1       -0.0530
     27 C           8.4294   -0.6164    3.0374 C.3     1  UNL1       -0.0528
     28 C           9.0145    0.2209    1.9107 C.3     1  UNL1       -0.0502
     29 C           9.2715    3.3227   -4.7448 C.3     1  UNL1        0.0301
     30 C           8.8356    2.7084   -6.0774 C.3     1  UNL1       -0.0440
     31 C           9.0804    4.8578   -4.9534 C.3     1  UNL1       -0.0440
     32 C          10.8052    3.2246   -4.5957 C.3     1  UNL1       -0.0440
     33 H           0.5686   -0.6874    0.9396 H       1  UNL1        0.0230
     34 H           0.5523   -0.4954   -0.8291 H       1  UNL1        0.0230
     35 H           0.5553    0.9387    0.2144 H       1  UNL1        0.0230
     36 H           2.8297   -1.0970    0.0009 H       1  UNL1        0.0263
     37 H           2.8400    0.3389    1.0265 H       1  UNL1        0.0263
     38 H           2.5495    1.7969   -0.9935 H       1  UNL1        0.0280
     39 H           2.4787    0.3596   -2.0319 H       1  UNL1        0.0280
     40 H           4.7655   -0.2872   -1.1666 H       1  UNL1        0.0462
     41 H           4.7691    1.2556   -0.3003 H       1  UNL1        0.0462
     42 H           4.2111    1.9934   -2.9206 H       1  UNL1        0.1487
     43 H           6.5849    2.2504   -4.4221 H       1  UNL1        0.0650
     44 H           8.6783    4.0890   -2.6198 H       1  UNL1        0.2922
     45 H           7.5183    7.2275   -3.1974 H       1  UNL1        0.0691
     46 H           5.7006    8.6280   -3.2239 H       1  UNL1        0.2921
     47 H           3.4491    5.9423   -3.0725 H       1  UNL1        0.0691
     48 H           3.1874    3.7998   -2.8990 H       1  UNL1        0.2922
     49 H           8.2364    0.2708   -1.9969 H       1  UNL1        0.0358
     50 H           8.3170    1.8461   -0.8678 H       1  UNL1        0.0358
     51 H          10.2953    1.0967   -0.0232 H       1  UNL1        0.0272
     52 H          10.2903   -0.3323   -1.0692 H       1  UNL1        0.0272
     53 H           7.6999   -0.3189    0.3136 H       1  UNL1        0.0301
     54 H          10.2474   -1.9585    0.4969 H       1  UNL1        0.0268
     55 H           8.8196   -2.3020   -0.4803 H       1  UNL1        0.0268
     56 H           8.9781   -3.7026    1.5747 H       1  UNL1        0.0265
     57 H           7.4900   -2.7539    1.5199 H       1  UNL1        0.0265
     58 H          10.0187   -2.0704    3.1041 H       1  UNL1        0.0265
     59 H           8.4897   -2.6416    3.7756 H       1  UNL1        0.0265
     60 H           8.7122   -0.1725    3.9981 H       1  UNL1        0.0265
     61 H           7.3345   -0.6025    2.9810 H       1  UNL1        0.0265
     62 H          10.0938    0.3219    2.0727 H       1  UNL1        0.0268
     63 H           8.5893    1.2323    1.9448 H       1  UNL1        0.0268
     64 H           7.7628    2.8548   -6.2409 H       1  UNL1        0.0250
     65 H           9.0596    1.6430   -6.1325 H       1  UNL1        0.0250
     66 H           9.3483    3.2130   -6.9085 H       1  UNL1        0.0250
     67 H           8.0445    5.1009   -5.1887 H       1  UNL1        0.0250
     68 H           9.6568    5.2582   -5.7979 H       1  UNL1        0.0250
     69 H           9.4701    5.4468   -4.1178 H       1  UNL1        0.0250
     70 H          11.1423    2.1850   -4.6615 H       1  UNL1        0.0250
     71 H          11.1018    3.6724   -3.6337 H       1  UNL1        0.0250
     72 H          11.3587    3.7812   -5.3515 H       1  UNL1        0.0250
@<TRIPOS>BOND
     1     1     2    1
     2     2     3    1
     3     3     4    1
     4     4     5    1
     5     5     6   am
     6     6     7    2
     7     6     8    1
     8     8     9    1
     9     9    10   ar
    10    10    11    1
    11    10    12   ar
    12    12    13   ar
    13    13    14    1
    14    13    15   ar
    15    15    16   ar
    16     9    16   ar
    17    16    17    1
    18     8    18    1
    19    18    19   am
    20    19    20    2
    21    19    21    1
    22    21    22    1
    23    22    23    1
    24    23    24    1
    25    24    25    1
    26    25    26    1
    27    26    27    1
    28    27    28    1
    29    23    28    1
    30    18    29    1
    31    29    30    1
    32    29    31    1
    33    29    32    1
    34     1    33    1
    35     1    34    1
    36     1    35    1
    37     2    36    1
    38     2    37    1
    39     3    38    1
    40     3    39    1
    41     4    40    1
    42     4    41    1
    43     5    42    1
    44     8    43    1
    45    11    44    1
    46    12    45    1
    47    14    46    1
    48    15    47    1
    49    17    48    1
    50    21    49    1
    51    21    50    1
    52    22    51    1
    53    22    52    1
    54    23    53    1
    55    24    54    1
    56    24    55    1
    57    25    56    1
    58    25    57    1
    59    26    58    1
    60    26    59    1
    61    27    60    1
    62    27    61    1
    63    28    62    1
    64    28    63    1
    65    30    64    1
    66    30    65    1
    67    30    66    1
    68    31    67    1
    69    31    68    1
    70    31    69    1
    71    32    70    1
    72    32    71    1
    73    32    72    1
