REMARK  7 active torsions:
REMARK  status: ('A' for Active; 'I' for Inactive)
REMARK    1  A    between atoms: C_2  and  N_3 
REMARK       I    between atoms: N_3  and  C_4 
REMARK       I    between atoms: C_4  and  N_6 
REMARK    2  A    between atoms: N_6  and  N_7 
REMARK       I    between atoms: N_7  and  C_8 
REMARK    3  A    between atoms: C_8  and  C_10 
REMARK    4  A    between atoms: C_10  and  C_11 
REMARK    5  A    between atoms: C_11  and  C_12 
REMARK    6  A    between atoms: C_17  and  O_18 
REMARK    7  A    between atoms: O_18  and  C_19 
ROOT
ATOM      1  N   UNL d   1       6.259  -0.211   3.267  0.00  0.00    -0.266 N 
ATOM      2  C   UNL d   1       6.655  -0.382   4.581  0.00  0.00     0.236 C 
ATOM      3  O   UNL d   1       5.843  -0.379   5.508  0.00  0.00    -0.272 OA
ATOM      4  H   UNL d   1       6.900  -0.143   2.478  0.00  0.00     0.190 HD
ENDROOT
BRANCH   2   5
ATOM      5  C   UNL d   1       8.159  -0.579   4.798  0.00  0.00     0.109 C 
BRANCH   5   6
ATOM      6  C   UNL d   1       8.482  -0.680   6.303  0.00  0.00     0.051 C 
BRANCH   6   7
ATOM      7  C   UNL d   1       9.940  -0.472   6.652  0.00  0.00    -0.024 A 
ATOM      8  C   UNL d   1      10.682  -1.661   6.855  0.00  0.00     0.010 A 
ATOM      9  C   UNL d   1      12.004  -1.637   7.291  0.00  0.00     0.001 A 
ATOM     10  C   UNL d   1      12.641  -0.417   7.457  0.00  0.00     0.003 A 
ATOM     11  C   UNL d   1      11.938   0.773   7.230  0.00  0.00     0.037 A 
ATOM     12  C   UNL d   1      10.582   0.773   6.840  0.00  0.00     0.075 A 
BRANCH  12  13
ATOM     13  O   UNL d   1      10.072   2.051   6.699  0.00  0.00    -0.351 OA
BRANCH  13  14
ATOM     14  C   UNL d   1       8.704   2.187   6.348  0.00  0.00     0.171 C 
ATOM     15  C   UNL d   1       8.242   3.589   6.052  0.00  0.00     0.034 C 
ENDBRANCH  13  14
ENDBRANCH  12  13
ENDBRANCH   6   7
ENDBRANCH   5   6
ENDBRANCH   2   5
BRANCH   1  16
ATOM     16  N   UNL d   1       4.868  -0.127   2.956  0.00  0.00    -0.249 N 
ATOM     17  C   UNL d   1       4.476  -0.038   1.633  0.00  0.00     0.334 C 
ATOM     18  N   UNL d   1       3.112  -0.020   1.431  0.00  0.00    -0.342 N 
ATOM     19  O   UNL d   1       5.296   0.027   0.713  0.00  0.00    -0.246 OA
ATOM     20  H   UNL d   1       2.487  -0.087   2.220  0.00  0.00     0.164 HD
ATOM     21  H   UNL d   1       4.226  -0.215   3.738  0.00  0.00     0.192 HD
BRANCH  18  22
ATOM     22  C   UNL d   1       2.547   0.085   0.087  0.00  0.00     0.120 C 
ATOM     23  C   UNL d   1       1.023   0.087   0.052  0.00  0.00     0.026 C 
ENDBRANCH  18  22
ENDBRANCH   1  16
TORSDOF 7
