@<TRIPOS>MOLECULE
*****
 59 63 0 0 0
SMALL
GASTEIGER

@<TRIPOS>ATOM
      1 O           0.8000    0.2716    0.2214 O.2     1  UNL1       -0.2737
      2 C           2.0237    0.1416    0.2371 C.2     1  UNL1        0.2348
      3 N           2.6429   -0.9580    0.8683 N.am    1  UNL1       -0.3018
      4 CA          2.0505   -2.3422    1.2168 C.3     1  UNL1        0.0878
      5 C           1.1879   -2.9888    0.0096 C.2     1  UNL1        0.0664
      6 O           1.4895   -4.1345   -0.4297 O.co2   1  UNL1       -0.5475
      7 OXT         0.2591   -2.2653   -0.4493 O.co2   1  UNL1       -0.5475
      8 C           3.1529   -3.3186    1.8305 C.ar    1  UNL1       -0.0217
      9 C           3.0371   -4.7240    1.7372 C.ar    1  UNL1       -0.0564
     10 C           3.8619   -5.6239    2.4188 C.ar    1  UNL1       -0.0614
     11 C           4.9161   -5.1537    3.1746 C.ar    1  UNL1       -0.0617
     12 C           5.1112   -3.7780    3.2689 C.ar    1  UNL1       -0.0614
     13 C           4.2352   -2.8721    2.6226 C.ar    1  UNL1       -0.0564
     14 C           2.9063    1.3015   -0.5568 C.3     1  UNL1        0.1103
     15 C           2.4121    3.0541   -0.1851 C.3     1  UNL1        0.0017
     16 C           0.8142    3.9682   -0.0281 C.ar    1  UNL1       -0.0201
     17 C           0.4129    3.5388    1.2085 C.ar    1  UNL1        0.0060
     18 N          -0.8426    3.4177    0.7357 N.ar    1  UNL1       -0.3604
     19 C          -1.2547    4.7134    0.7783 C.ar    1  UNL1        0.0467
     20 C          -2.5835    4.9707    1.3252 C.ar    1  UNL1       -0.0378
     21 C          -3.1444    6.1880    1.5459 C.ar    1  UNL1       -0.0598
     22 C          -2.2708    7.1689    1.2332 C.ar    1  UNL1       -0.0611
     23 C          -0.9101    6.8069    0.6085 C.ar    1  UNL1       -0.0523
     24 C          -0.0488    5.5085    0.2801 C.ar    1  UNL1        0.0029
     25 N           4.5442    1.0024   -0.6104 N.am    1  UNL1       -0.2445
     26 C           5.4299    1.9813   -1.0991 C.2     1  UNL1        0.2521
     27 O           5.0757    3.0168   -1.6506 O.2     1  UNL1       -0.2698
     28 C           6.9083    1.7182   -0.9841 C.ar    1  UNL1        0.0579
     29 C           7.8234    2.7176   -0.7019 C.ar    1  UNL1       -0.0478
     30 C           9.1889    2.4302   -0.7554 C.ar    1  UNL1       -0.0609
     31 C           9.6331    1.1319   -1.0301 C.ar    1  UNL1       -0.0600
     32 C           8.7047    0.1131   -1.2725 C.ar    1  UNL1       -0.0400
     33 C           7.3357    0.4129   -1.2265 C.ar    1  UNL1        0.0424
     34 N           6.3306   -0.5171   -1.2380 N.pl3   1  UNL1       -0.3031
     35 C           5.2681   -0.2536   -0.3087 C.3     1  UNL1        0.1965
     36 O           4.5286   -1.4152   -0.4096 O.3     1  UNL1       -0.3588
     37 H           3.6370   -1.0736    0.8659 H       1  UNL1        0.1497
     38 HA          1.3733   -2.1406    2.0575 H       1  UNL1        0.0610
     39 H           2.2940   -5.2065    1.1135 H       1  UNL1        0.0621
     40 H           3.6381   -6.6850    2.3466 H       1  UNL1        0.0618
     41 H           5.5676   -5.8600    3.6790 H       1  UNL1        0.0618
     42 H           5.9346   -3.4076    3.8749 H       1  UNL1        0.0618
     43 H           4.4274   -1.8132    2.7643 H       1  UNL1        0.0621
     44 H           2.6618    1.1611   -1.6244 H       1  UNL1        0.0601
     45 H           3.1481    3.7274   -0.6032 H       1  UNL1        0.0337
     46 H           2.6209    2.9473    0.8953 H       1  UNL1        0.0337
     47 H           0.7711    4.1398    2.0509 H       1  UNL1        0.0810
     48 H          -1.1474    2.8875   -0.0691 H       1  UNL1        0.1653
     49 H          -3.1407    4.0963    1.6652 H       1  UNL1        0.0638
     50 H          -4.1498    6.2993    1.9572 H       1  UNL1        0.0618
     51 H          -2.6067    8.1890    1.4791 H       1  UNL1        0.0618
     52 H          -0.4076    7.7801    0.4425 H       1  UNL1        0.0624
     53 H           7.4599    3.6975   -0.4188 H       1  UNL1        0.0626
     54 H           9.9073    3.2282   -0.5932 H       1  UNL1        0.0618
     55 H          10.7011    0.9168   -1.0200 H       1  UNL1        0.0618
     56 H           9.0681   -0.8979   -1.4573 H       1  UNL1        0.0636
     57 H           6.3494   -1.4054   -1.7143 H       1  UNL1        0.1501
     58 H           5.6667   -0.1735    0.7191 H       1  UNL1        0.1036
     59 H           3.7422   -1.2222   -0.9424 H       1  UNL1        0.2134
@<TRIPOS>UNITY_ATOM_ATTR
7 1
charge -1
@<TRIPOS>BOND
     1     1     2    2
     2     2     3   am
     3     3     4    1
     4     4     5    1
     5     5     6   ar
     6     5     7   ar
     7     4     8    1
     8     8     9   ar
     9     9    10   ar
    10    10    11   ar
    11    11    12   ar
    12    12    13   ar
    13     8    13   ar
    14     2    14    1
    15    14    15    1
    16    15    16    1
    17    16    17   ar
    18    17    18   ar
    19    18    19   ar
    20    19    20   ar
    21    20    21   ar
    22    21    22   ar
    23    22    23   ar
    24    23    24   ar
    25    16    24   ar
    26    19    24   ar
    27    14    25    1
    28    25    26   am
    29    26    27    2
    30    26    28    1
    31    28    29   ar
    32    29    30   ar
    33    30    31   ar
    34    31    32   ar
    35    32    33   ar
    36    28    33   ar
    37    33    34    1
    38    34    35    1
    39    25    35    1
    40    35    36    1
    41     3    37    1
    42     4    38    1
    43     9    39    1
    44    10    40    1
    45    11    41    1
    46    12    42    1
    47    13    43    1
    48    14    44    1
    49    15    45    1
    50    15    46    1
    51    17    47    1
    52    18    48    1
    53    20    49    1
    54    21    50    1
    55    22    51    1
    56    23    52    1
    57    29    53    1
    58    30    54    1
    59    31    55    1
    60    32    56    1
    61    34    57    1
    62    35    58    1
    63    36    59    1
