@<TRIPOS>MOLECULE
*****
 66 68 0 0 0
SMALL
GASTEIGER

@<TRIPOS>ATOM
      1 C           3.4855   -1.6312    1.2319 C.3     1  UNL1       -0.0380
      2 C           4.5348   -2.0393    2.2900 C.3     1  UNL1        0.0997
      3 N           4.5484   -3.5120    2.2720 N.am    1  UNL1       -0.2701
      4 C           4.7485   -4.1736    1.0680 C.2     1  UNL1        0.4012
      5 O           5.1249   -3.6411    0.0474 O.2     1  UNL1       -0.2265
      6 O           4.4108   -5.4902    1.1411 O.3     1  UNL1       -0.4456
      7 C           4.5370   -6.1504   -0.1398 C.3     1  UNL1        0.1191
      8 C           4.3569   -7.6326    0.0623 C.ar    1  UNL1       -0.0103
      9 C           3.2505   -8.3404   -0.4289 C.ar    1  UNL1       -0.0554
     10 C           3.0879   -9.6928   -0.1100 C.ar    1  UNL1       -0.0614
     11 C           4.0683  -10.3643    0.6206 C.ar    1  UNL1       -0.0617
     12 C           5.1905   -9.6768    1.0735 C.ar    1  UNL1       -0.0614
     13 C           5.3285   -8.3190    0.8018 C.ar    1  UNL1       -0.0554
     14 C           4.2583   -1.3828    3.6888 C.2     1  UNL1        0.2338
     15 O           3.8605   -2.0671    4.6377 O.2     1  UNL1       -0.2738
     16 N           4.4336   -0.0297    3.9125 N.am    1  UNL1       -0.3002
     17 C           5.0751    1.0398    3.0897 C.3     1  UNL1        0.1295
     18 C           4.6256    0.9806    1.6487 C.3     1  UNL1        0.0228
     19 S           5.3021    2.0203    0.3838 S.3     1  UNL1       -0.1537
     20 C           4.7900    1.0543   -1.1554 C.3     1  UNL1        0.0189
     21 C           5.4710    1.7087   -2.3353 C.ar    1  UNL1       -0.0376
     22 C           5.5539    3.1126   -2.3748 C.ar    1  UNL1       -0.0578
     23 C           6.1348    3.7793   -3.4356 C.ar    1  UNL1       -0.0615
     24 C           6.6815    3.0459   -4.4756 C.ar    1  UNL1       -0.0617
     25 C           6.6100    1.6501   -4.4662 C.ar    1  UNL1       -0.0615
     26 C           5.9994    0.9760   -3.4033 C.ar    1  UNL1       -0.0578
     27 C           6.5963    0.9342    3.0987 C.2     1  UNL1        0.3288
     28 O           7.2602    0.4444    2.1921 O.2     1  UNL1       -0.2487
     29 O           7.1346    1.4109    4.2412 O.3     1  UNL1       -0.4586
     30 C           8.5653    1.3593    4.1822 C.3     1  UNL1        0.1176
     31 C           9.0428    1.8140    5.5230 C.ar    1  UNL1       -0.0103
     32 C           9.3675    0.8830    6.5154 C.ar    1  UNL1       -0.0554
     33 C           9.5702    1.3121    7.8236 C.ar    1  UNL1       -0.0614
     34 C           9.5404    2.6738    8.1240 C.ar    1  UNL1       -0.0617
     35 C           9.2738    3.6085    7.1253 C.ar    1  UNL1       -0.0614
     36 C           9.0181    3.1798    5.8283 C.ar    1  UNL1       -0.0554
     37 H           3.2284   -0.5999    1.0730 H       1  UNL1        0.0252
     38 H           2.5160   -2.0631    1.4658 H       1  UNL1        0.0252
     39 H           3.8197   -1.9143    0.2325 H       1  UNL1        0.0252
     40 H           5.5692   -1.7633    2.0435 H       1  UNL1        0.0593
     41 H           4.2291   -4.0178    3.0869 H       1  UNL1        0.1528
     42 H           5.5388   -5.9847   -0.5609 H       1  UNL1        0.0749
     43 H           3.7942   -5.7561   -0.8456 H       1  UNL1        0.0749
     44 H           2.5038   -7.8540   -1.0533 H       1  UNL1        0.0621
     45 H           2.1912  -10.2252   -0.4189 H       1  UNL1        0.0618
     46 H           3.9599  -11.4237    0.8364 H       1  UNL1        0.0618
     47 H           5.9515  -10.1873    1.6558 H       1  UNL1        0.0618
     48 H           6.1969   -7.7805    1.1742 H       1  UNL1        0.0621
     49 H           4.2152    0.2336    4.8715 H       1  UNL1        0.1496
     50 H           4.7518    2.0064    3.5014 H       1  UNL1        0.0623
     51 H           5.0055    0.0368    1.2902 H       1  UNL1        0.0400
     52 H           3.5391    1.0945    1.6283 H       1  UNL1        0.0400
     53 H           3.7027    1.1328   -1.2905 H       1  UNL1        0.0425
     54 H           5.0346   -0.0198   -1.1132 H       1  UNL1        0.0425
     55 H           5.1964    3.7137   -1.5419 H       1  UNL1        0.0621
     56 H           6.1509    4.8634   -3.4277 H       1  UNL1        0.0618
     57 H           7.1666    3.5699   -5.2916 H       1  UNL1        0.0618
     58 H           7.0298    1.0896   -5.2969 H       1  UNL1        0.0618
     59 H           5.9600   -0.1118   -3.4171 H       1  UNL1        0.0621
     60 H           8.9277    2.0360    3.3979 H       1  UNL1        0.0749
     61 H           8.9134    0.3406    3.9674 H       1  UNL1        0.0749
     62 H           9.4299   -0.1779    6.2811 H       1  UNL1        0.0621
     63 H           9.7250    0.5829    8.6139 H       1  UNL1        0.0618
     64 H           9.7223    3.0068    9.1413 H       1  UNL1        0.0618
     65 H           9.2308    4.6675    7.3608 H       1  UNL1        0.0618
     66 H           8.7670    3.9053    5.0576 H       1  UNL1        0.0621
@<TRIPOS>BOND
     1     3     4   am
     2     4     5    2
     3     4     6    1
     4     6     7    1
     5     7     8    1
     6     8     9   ar
     7     9    10   ar
     8    10    11   ar
     9    11    12   ar
    10    12    13   ar
    11     8    13   ar
    12     2    14    1
    13    14    15    2
    14    14    16   am
    15    18    19    1
    16    19    20    1
    17    20    21    1
    18    21    22   ar
    19    22    23   ar
    20    23    24   ar
    21    24    25   ar
    22    25    26   ar
    23    21    26   ar
    24    17    27    1
    25    27    28    2
    26    27    29    1
    27    29    30    1
    28    30    31    1
    29    31    32   ar
    30    32    33   ar
    31    33    34   ar
    32    34    35   ar
    33    35    36   ar
    34    31    36   ar
    35     2     3    1
    36     2     1    1
    37    17    18    1
    38    17    16    1
    39     1    37    1
    40     1    38    1
    41     1    39    1
    42     2    40    1
    43     3    41    1
    44     7    42    1
    45     7    43    1
    46     9    44    1
    47    10    45    1
    48    11    46    1
    49    12    47    1
    50    13    48    1
    51    16    49    1
    52    17    50    1
    53    18    51    1
    54    18    52    1
    55    20    53    1
    56    20    54    1
    57    22    55    1
    58    23    56    1
    59    24    57    1
    60    25    58    1
    61    26    59    1
    62    30    60    1
    63    30    61    1
    64    32    62    1
    65    33    63    1
    66    34    64    1
    67    35    65    1
    68    36    66    1
