@<TRIPOS>MOLECULE
*****
 56 58 0 0 0
SMALL
GASTEIGER

@<TRIPOS>ATOM
      1 O           1.0255   -0.1769   -0.0277 O.2     1  UNL1       -0.2754
      2 C           2.2376    0.0336   -0.0049 C.2     1  UNL1        0.2190
      3 C           2.8135    1.4291    0.1043 C.3     1  UNL1        0.0344
      4 C           1.8865    2.6204    0.1932 C.3     1  UNL1        0.0532
      5 C           2.7318    3.8800    0.2660 C.2     1  UNL1        0.3075
      6 O           3.9565    3.9112    0.2747 O.2     1  UNL1       -0.2508
      7 O           1.9385    4.9902    0.3190 O.3     1  UNL1       -0.4643
      8 C           2.7057    6.1974    0.4227 C.3     1  UNL1        0.0964
      9 C           1.7926    7.4201    0.5013 C.3     1  UNL1        0.0067
     10 C           2.5324    8.7371    0.6155 C.ar    1  UNL1       -0.0442
     11 C           3.8639    8.8095    1.0556 C.ar    1  UNL1       -0.0585
     12 C           4.4751   10.0360    1.3031 C.ar    1  UNL1       -0.0615
     13 C           3.7949   11.2158    1.0305 C.ar    1  UNL1       -0.0617
     14 C           2.4852   11.1673    0.5563 C.ar    1  UNL1       -0.0615
     15 C           1.8510    9.9364    0.3634 C.ar    1  UNL1       -0.0585
     16 N           3.1563   -1.0353   -0.0907 N.am    1  UNL1       -0.2676
     17 C           4.5648   -1.0605   -0.2505 C.2     1  UNL1        0.1408
     18 S           5.5259    0.3158   -0.4985 S.2     1  UNL1       -0.0182
     19 N           5.1236   -2.3616   -0.2411 N.am    1  UNL1       -0.2965
     20 C           6.5410   -2.5591   -0.1644 C.ar    1  UNL1        0.0343
     21 C           7.2672   -3.3764   -1.0134 C.ar    1  UNL1       -0.0404
     22 C           8.6700   -3.4212   -0.8733 C.ar    1  UNL1       -0.0583
     23 C           9.3479   -2.6114    0.0695 C.ar    1  UNL1       -0.0404
     24 C           8.6166   -1.8040    0.9391 C.ar    1  UNL1        0.0355
     25 N           9.2275   -0.9705    1.9191 N.am    1  UNL1       -0.2789
     26 C           8.5419   -0.1603    2.8391 C.2     1  UNL1        0.2835
     27 O           7.3104   -0.0784    2.9445 O.2     1  UNL1       -0.2665
     28 C           9.3563    0.6308    3.7244 C.ar    1  UNL1        0.1893
     29 C          10.5320    1.3258    3.5288 C.ar    1  UNL1       -0.0113
     30 C          10.7737    2.0534    4.7194 C.ar    1  UNL1       -0.0231
     31 C           9.7500    1.7422    5.5819 C.ar    1  UNL1        0.0928
     32 O           8.8844    0.8848    4.9882 O.2     1  UNL1       -0.4583
     33 C           7.2346   -1.8488    0.8172 C.ar    1  UNL1       -0.0192
     34 H           3.3741    1.6004   -0.8177 H       1  UNL1        0.0364
     35 H           3.4561    1.4391    0.9937 H       1  UNL1        0.0364
     36 H           1.2645    2.5463    1.0865 H       1  UNL1        0.0382
     37 H           1.2651    2.6672   -0.7052 H       1  UNL1        0.0382
     38 H           3.3628    6.2940   -0.4516 H       1  UNL1        0.0701
     39 H           3.3162    6.1350    1.3323 H       1  UNL1        0.0701
     40 H           1.1346    7.3186    1.3746 H       1  UNL1        0.0346
     41 H           1.1352    7.4325   -0.3774 H       1  UNL1        0.0346
     42 H           4.4595    7.9172    1.2267 H       1  UNL1        0.0620
     43 H           5.4787   10.0592    1.7191 H       1  UNL1        0.0618
     44 H           4.2887   12.1699    1.1877 H       1  UNL1        0.0618
     45 H           1.9503   12.0917    0.3564 H       1  UNL1        0.0618
     46 H           0.8190    9.9218    0.0188 H       1  UNL1        0.0620
     47 H           2.6653   -1.9208   -0.1170 H       1  UNL1        0.1565
     48 H           4.5653   -3.1685   -0.4879 H       1  UNL1        0.1538
     49 H           6.7889   -3.9144   -1.8260 H       1  UNL1        0.0636
     50 H           9.2453   -4.0883   -1.5145 H       1  UNL1        0.0619
     51 H          10.4348   -2.6427    0.0988 H       1  UNL1        0.0636
     52 H          10.2372   -1.0011    1.9866 H       1  UNL1        0.1552
     53 H          11.0852    1.3625    2.6038 H       1  UNL1        0.0657
     54 H          11.5780    2.7463    4.9144 H       1  UNL1        0.0649
     55 H           9.4923    2.0498    6.5872 H       1  UNL1        0.1029
     56 H           6.6162   -1.2723    1.4841 H       1  UNL1        0.0655
@<TRIPOS>BOND
     1     1     2    2
     2     2     3    1
     3     3     4    1
     4     4     5    1
     5     5     6    2
     6     5     7    1
     7     7     8    1
     8     8     9    1
     9     9    10    1
    10    10    11   ar
    11    11    12   ar
    12    12    13   ar
    13    13    14   ar
    14    14    15   ar
    15    10    15   ar
    16     2    16   am
    17    16    17    1
    18    17    18    2
    19    17    19    1
    20    19    20    1
    21    20    21   ar
    22    21    22   ar
    23    22    23   ar
    24    23    24   ar
    25    24    25    1
    26    25    26   am
    27    26    27    2
    28    26    28    1
    29    28    29   ar
    30    29    30   ar
    31    30    31   ar
    32    31    32   ar
    33    28    32   ar
    34    24    33   ar
    35    20    33   ar
    36     3    34    1
    37     3    35    1
    38     4    36    1
    39     4    37    1
    40     8    38    1
    41     8    39    1
    42     9    40    1
    43     9    41    1
    44    11    42    1
    45    12    43    1
    46    13    44    1
    47    14    45    1
    48    15    46    1
    49    16    47    1
    50    19    48    1
    51    21    49    1
    52    22    50    1
    53    23    51    1
    54    25    52    1
    55    29    53    1
    56    30    54    1
    57    31    55    1
    58    33    56    1
