REMARK  6 active torsions:
REMARK  status: ('A' for Active; 'I' for Inactive)
REMARK    1  A    between atoms: O_2  and  C_3 
REMARK    2  A    between atoms: C_6  and  N_7 
REMARK       I    between atoms: N_7  and  C_8 
REMARK    3  A    between atoms: C_12  and  N_13 
REMARK       I    between atoms: N_13  and  C_14 
REMARK    4  A    between atoms: C_14  and  C_16 
REMARK    5  A    between atoms: C_16  and  N_17 
REMARK    6  A    between atoms: C_21  and  C_23 
ROOT
ATOM      1  N   UNL d   1       1.510  -1.386  -2.269  0.00  0.00    -0.323 N 
ATOM      2  C   UNL d   1       1.035  -0.092  -2.266  0.00  0.00     0.240 C 
ATOM      3  O   UNL d   1       1.794   0.830  -1.989  0.00  0.00    -0.271 OA
ATOM      4  H   UNL d   1       1.277  -1.972  -3.062  0.00  0.00     0.169 HD
ENDROOT
BRANCH   2   5
ATOM      5  C   UNL d   1      -0.457   0.140  -2.584  0.00  0.00     0.240 C 
BRANCH   5   6
ATOM      6  N   UNL d   1      -1.094   1.222  -1.791  0.00  0.00    -0.259 N 
ATOM      7  C   UNL d   1      -2.404   1.239  -1.422  0.00  0.00     0.326 C 
ATOM      8  O   UNL d   1      -3.106   0.283  -1.086  0.00  0.00    -0.247 OA
ATOM      9  N   UNL d   1      -2.850   2.543  -1.429  0.00  0.00    -0.321 N 
ATOM     10  C   UNL d   1      -1.750   3.484  -1.392  0.00  0.00     0.141 C 
ATOM     11  H   UNL d   1      -3.826   2.796  -1.340  0.00  0.00     0.165 HD
ATOM     12  C   UNL d   1      -0.608   2.502  -1.659  0.00  0.00     0.261 C 
ATOM     13  C   UNL d   1      -1.772   4.391  -2.608  0.00  0.00     0.055 C 
ATOM     14  O   UNL d   1       0.547   2.892  -1.766  0.00  0.00    -0.270 OA
BRANCH  10  15
ATOM     15  C   UNL d   1      -1.660   4.213  -0.041  0.00  0.00    -0.004 A 
ATOM     16  C   UNL d   1      -1.723   3.418   1.136  0.00  0.00     0.011 A 
ATOM     17  C   UNL d   1      -1.816   3.987   2.410  0.00  0.00     0.001 A 
ATOM     18  C   UNL d   1      -1.758   5.362   2.562  0.00  0.00     0.001 A 
ATOM     19  C   UNL d   1      -1.636   6.166   1.444  0.00  0.00     0.020 A 
ATOM     20  C   UNL d   1      -1.576   5.619   0.156  0.00  0.00     0.020 A 
ATOM     21 BR   UNL d   1      -1.349   7.019  -1.131  0.00  0.00    -0.050 Br
ENDBRANCH  10  15
ENDBRANCH   5   6
ENDBRANCH   2   5
BRANCH   1  22
ATOM     22  C   UNL d   1       2.656  -1.745  -1.490  0.00  0.00     0.070 C 
ATOM     23  C   UNL d   1       3.509  -2.695  -2.057  0.00  0.00     0.062 C 
ATOM     24  C   UNL d   1       4.592  -3.280  -1.398  0.00  0.00     0.037 C 
ATOM     25  C   UNL d   1       4.989  -2.691  -0.200  0.00  0.00     0.032 C 
ATOM     26  C   UNL d   1       4.199  -1.676   0.367  0.00  0.00     0.041 C 
ATOM     27  C   UNL d   1       3.004  -1.236  -0.238  0.00  0.00     0.095 C 
BRANCH  24  28
ATOM     28  N   UNL d   1       5.279  -4.420  -1.879  0.00  0.00    -0.327 N 
ATOM     29  C   UNL d   1       5.007  -5.296  -2.898  0.00  0.00     0.218 C 
ATOM     30  C   UNL d   1       3.836  -5.141  -3.837  0.00  0.00     0.117 C 
ATOM     31  O   UNL d   1       5.761  -6.263  -3.058  0.00  0.00    -0.274 OA
ATOM     32  H   UNL d   1       6.067  -4.750  -1.325  0.00  0.00     0.169 HD
ENDBRANCH  24  28
BRANCH  27  33
ATOM     33  O   UNL d   1       2.369  -0.247   0.457  0.00  0.00    -0.354 OA
ATOM     34  C   UNL d   1       0.959  -0.321   0.610  0.00  0.00     0.210 C 
ENDBRANCH  27  33
ENDBRANCH   1  22
TORSDOF 6
