REMARK  9 active torsions:
REMARK  status: ('A' for Active; 'I' for Inactive)
REMARK    1  A    between atoms: O_2  and  C_3 
REMARK    2  A    between atoms: C_3  and  C_5 
REMARK    3  A    between atoms: C_8  and  N_9 
REMARK    4  A    between atoms: N_9  and  C_10 
REMARK    5  A    between atoms: C_10  and  C_11 
REMARK       I    between atoms: C_11  and  N_13 
REMARK    6  A    between atoms: N_13  and  C_14 
REMARK    7  A    between atoms: C_17  and  C_18 
REMARK       I    between atoms: C_18  and  N_20 
REMARK    8  A    between atoms: C_21  and  N_20 
REMARK    9  A    between atoms: C_21  and  C_23 
ROOT
ATOM      1  C   UNL d   1      22.108  -2.123   2.950  0.00  0.00     0.034 C 
ATOM      2  C   UNL d   1      22.431  -3.108   2.012  0.00  0.00     0.030 C 
ATOM      3  C   UNL d   1      22.096  -2.934   0.642  0.00  0.00     0.019 C 
ATOM      4  C   UNL d   1      21.451  -1.769   0.197  0.00  0.00     0.032 C 
ATOM      5  C   UNL d   1      21.291  -0.778   1.156  0.00  0.00     0.019 C 
ATOM      6  C   UNL d   1      21.533  -0.961   2.500  0.00  0.00     0.030 C 
ENDROOT
BRANCH   1   7
ATOM      7  N   UNL d   1      22.426  -2.201   4.319  0.00  0.00    -0.326 N 
ATOM      8  C   UNL d   1      21.587  -1.656   5.300  0.00  0.00     0.239 C 
ATOM      9  O   UNL d   1      20.476  -1.167   5.076  0.00  0.00    -0.271 OA
ATOM     10  H   UNL d   1      23.281  -2.678   4.570  0.00  0.00     0.169 HD
BRANCH   8  11
ATOM     11  C   UNL d   1      22.120  -1.732   6.733  0.00  0.00     0.223 C 
BRANCH  11  12
ATOM     12  N   UNL d   1      21.077  -1.336   7.691  0.00  0.00    -0.381 N 
ATOM     13  H   UNL d   1      20.267  -0.881   7.267  0.00  0.00     0.160 HD
BRANCH  12  14
ATOM     14  C   UNL d   1      21.321  -1.143   9.040  0.00  0.00     0.028 A 
ATOM     15  C   UNL d   1      20.325  -0.615   9.875  0.00  0.00     0.030 A 
ATOM     16  C   UNL d   1      20.556  -0.404  11.248  0.00  0.00     0.020 A 
ATOM     17  C   UNL d   1      21.765  -0.798  11.831  0.00  0.00     0.039 A 
ATOM     18  C   UNL d   1      22.747  -1.368  11.023  0.00  0.00     0.020 A 
ATOM     19  C   UNL d   1      22.516  -1.542   9.649  0.00  0.00     0.030 A 
BRANCH  17  20
ATOM     20  C   UNL d   1      21.916  -0.754  13.313  0.00  0.00     0.292 C 
ATOM     21  O   UNL d   1      21.006  -1.020  14.072  0.00  0.00    -0.259 OA
BRANCH  20  22
ATOM     22  O   UNL d   1      23.177  -0.386  13.674  0.00  0.00    -0.323 OA
ATOM     23  C   UNL d   1      23.379  -0.331  15.095  0.00  0.00     0.213 C 
ENDBRANCH  20  22
ENDBRANCH  17  20
ENDBRANCH  12  14
ENDBRANCH  11  12
ENDBRANCH   8  11
ENDBRANCH   1   7
BRANCH   4  24
ATOM     24  C   UNL d   1      20.994  -1.654  -1.237  0.00  0.00     0.252 C 
ATOM     25  O   UNL d   1      21.265  -2.566  -2.022  0.00  0.00    -0.268 OA
ATOM     26  N   UNL d   1      20.259  -0.593  -1.735  0.00  0.00    -0.349 N 
ATOM     27  H   UNL d   1      20.036  -0.708  -2.717  0.00  0.00     0.163 HD
BRANCH  26  28
ATOM     28  C   UNL d   1      19.613   0.535  -1.086  0.00  0.00     0.114 C 
ATOM     29  C   UNL d   1      18.162   0.259  -0.716  0.00  0.00     0.037 C 
BRANCH  28  30
ATOM     30  C   UNL d   1      19.913   1.883  -1.688  0.00  0.00    -0.036 A 
ATOM     31  C   UNL d   1      21.013   2.113  -2.523  0.00  0.00     0.009 A 
ATOM     32  C   UNL d   1      21.316   3.413  -2.925  0.00  0.00     0.001 A 
ATOM     33  C   UNL d   1      20.503   4.478  -2.533  0.00  0.00     0.000 A 
ATOM     34  C   UNL d   1      19.450   4.269  -1.654  0.00  0.00     0.001 A 
ATOM     35  C   UNL d   1      19.185   2.987  -1.211  0.00  0.00     0.009 A 
ENDBRANCH  28  30
ENDBRANCH  26  28
ENDBRANCH   4  24
TORSDOF 9
