@<TRIPOS>MOLECULE
*****
 37 38 0 0 0
SMALL
GASTEIGER

@<TRIPOS>ATOM
      1 C           1.8462    1.4823   -0.0147 C.3     1  UNL1       -0.0394
      2 C           0.5749    0.6648    0.0027 C.ar    1  UNL1       -0.0468
      3 C          -0.6450    1.3501    0.0206 C.ar    1  UNL1       -0.0585
      4 C          -1.8391    0.6447    0.0153 C.ar    1  UNL1       -0.0608
      5 C          -1.8324   -0.7549   -0.0146 C.ar    1  UNL1       -0.0493
      6 C          -0.6309   -1.4948   -0.0144 C.ar    1  UNL1        0.0413
      7 C          -0.6879   -3.0198   -0.0303 C.2     1  UNL1        0.2604
      8 O           0.3220   -3.7247   -0.0290 O.2     1  UNL1       -0.2687
      9 N          -1.9250   -3.6499   -0.0486 N.am    1  UNL1       -0.2301
     10 N          -1.9389   -5.0611   -0.0720 N.am    1  UNL1       -0.2300
     11 C          -3.1429   -5.7350   -0.0893 C.2     1  UNL1        0.2637
     12 O          -4.2297   -5.1601   -0.1543 O.2     1  UNL1       -0.2685
     13 C          -3.0783   -7.2248   -0.0678 C.ar    1  UNL1        0.0795
     14 C          -3.9318   -7.9481   -0.9165 C.ar    1  UNL1       -0.0460
     15 C          -3.9231   -9.3479   -0.9076 C.ar    1  UNL1       -0.0608
     16 C          -3.0849  -10.0339   -0.0295 C.ar    1  UNL1       -0.0583
     17 C          -2.2441   -9.3235    0.8320 C.ar    1  UNL1       -0.0194
     18 C          -2.2331   -7.9239    0.8021 C.ar    1  UNL1        0.1290
     19 O          -1.4061   -7.2296    1.6403 O.3     1  UNL1       -0.5060
     20 C           0.5966   -0.7667    0.0009 C.ar    1  UNL1       -0.0354
     21 C           1.9606   -1.4170    0.0242 C.3     1  UNL1       -0.0387
     22 H           1.6384    2.5586   -0.0260 H       1  UNL1        0.0278
     23 H           2.4307    1.2597   -0.9132 H       1  UNL1        0.0278
     24 H           2.4464    1.2774    0.8769 H       1  UNL1        0.0278
     25 H          -0.6705    2.4389    0.0376 H       1  UNL1        0.0620
     26 H          -2.7825    1.1868    0.0318 H       1  UNL1        0.0618
     27 H          -2.8042   -1.2347   -0.0358 H       1  UNL1        0.0625
     28 H          -2.8354   -3.2047   -0.0399 H       1  UNL1        0.1731
     29 H          -1.0366   -5.5285    0.0284 H       1  UNL1        0.1731
     30 H          -4.6033   -7.4230   -1.5926 H       1  UNL1        0.0626
     31 H          -4.5751   -9.9033   -1.5794 H       1  UNL1        0.0618
     32 H          -3.0917  -11.1227   -0.0149 H       1  UNL1        0.0619
     33 H          -1.6128   -9.8796    1.5197 H       1  UNL1        0.0654
     34 H          -0.9067   -7.8454    2.2015 H       1  UNL1        0.2922
     35 H           1.9717   -2.4987    0.0412 H       1  UNL1        0.0278
     36 H           2.5008   -1.1105    0.9260 H       1  UNL1        0.0278
     37 H           2.5285   -1.1297   -0.8662 H       1  UNL1        0.0278
@<TRIPOS>BOND
     1     1     2    1
     2     2     3   ar
     3     3     4   ar
     4     4     5   ar
     5     5     6   ar
     6     6     7    1
     7     7     8    2
     8     7     9   am
     9     9    10    1
    10    10    11   am
    11    11    12    2
    12    11    13    1
    13    13    14   ar
    14    14    15   ar
    15    15    16   ar
    16    16    17   ar
    17    17    18   ar
    18    13    18   ar
    19    18    19    1
    20     6    20   ar
    21     2    20   ar
    22    20    21    1
    23     1    22    1
    24     1    23    1
    25     1    24    1
    26     3    25    1
    27     4    26    1
    28     5    27    1
    29     9    28    1
    30    10    29    1
    31    14    30    1
    32    15    31    1
    33    16    32    1
    34    17    33    1
    35    19    34    1
    36    21    35    1
    37    21    36    1
    38    21    37    1
