REMARK  12 active torsions:
REMARK  status: ('A' for Active; 'I' for Inactive)
REMARK    1  A    between atoms: C_2  and  N_3 
REMARK    2  A    between atoms: N_3  and  C_4 
REMARK    3  A    between atoms: N_3  and  C_6 
REMARK    4  A    between atoms: C_6  and  C_7 
REMARK    5  A    between atoms: C_7  and  N_8 
REMARK       I    between atoms: N_8  and  C_9 
REMARK    6  A    between atoms: C_9  and  C_11 
REMARK    7  A    between atoms: C_14  and  N_15 
REMARK    8  A    between atoms: N_15  and  C_16 
REMARK    9  A    between atoms: C_16  and  N_18 
REMARK       I    between atoms: N_18  and  C_19 
REMARK   10  A    between atoms: C_19  and  C_21 
REMARK   11  A    between atoms: C_22  and  C_23 
REMARK   12  A    between atoms: C_26  and  N_27 
ROOT
ATOM      1  N   UNL d   1      12.956  -3.868  -1.242  0.00  0.00    -0.333 N 
ATOM      2  H   UNL d   1      13.477  -4.247  -2.029  0.00  0.00     0.168 HD
ENDROOT
BRANCH   1   3
ATOM      3  C   UNL d   1      11.493  -3.909  -1.417  0.00  0.00     0.034 A 
ATOM      4  C   UNL d   1      10.852  -4.405  -2.566  0.00  0.00     0.030 A 
ATOM      5  C   UNL d   1       9.428  -4.303  -2.715  0.00  0.00     0.019 A 
ATOM      6  C   UNL d   1       8.629  -3.743  -1.707  0.00  0.00     0.032 A 
ATOM      7  C   UNL d   1       9.238  -3.305  -0.564  0.00  0.00     0.019 A 
ATOM      8  C   UNL d   1      10.610  -3.443  -0.440  0.00  0.00     0.030 A 
BRANCH   6   9
ATOM      9  C   UNL d   1       7.145  -3.756  -1.712  0.00  0.00     0.251 C 
ATOM     10  N   UNL d   1       6.522  -2.647  -1.139  0.00  0.00    -0.355 N 
ATOM     11  H   UNL d   1       7.085  -1.848  -0.869  0.00  0.00     0.162 HD
ATOM     12  O   UNL d   1       6.529  -4.704  -2.156  0.00  0.00    -0.268 OA
BRANCH  10  13
ATOM     13  C   UNL d   1       5.078  -2.596  -1.119  0.00  0.00     0.150 C 
BRANCH  13  14
ATOM     14  C   UNL d   1       4.505  -1.264  -0.614  0.00  0.00     0.254 C 
BRANCH  14  15
ATOM     15  N   UNL d   1       2.961  -1.212  -0.655  0.00  0.00    -0.070 N 
ATOM     16  H   UNL d   1       2.622  -1.976  -0.050  0.00  0.00     0.279 HD
BRANCH  15  17
ATOM     17  C   UNL d   1       2.514   0.111  -0.038  0.00  0.00     0.230 C 
ATOM     18  C   UNL d   1       1.016   0.213   0.171  0.00  0.00     0.034 C 
ENDBRANCH  15  17
BRANCH  15  19
ATOM     19  C   UNL d   1       2.469  -1.459  -2.075  0.00  0.00     0.230 C 
ATOM     20  C   UNL d   1       0.973  -1.633  -2.200  0.00  0.00     0.034 C 
ENDBRANCH  15  19
ENDBRANCH  14  15
ENDBRANCH  13  14
ENDBRANCH  10  13
ENDBRANCH   6   9
ENDBRANCH   1   3
BRANCH   1  21
ATOM     21  C   UNL d   1      13.669  -3.243  -0.161  0.00  0.00     0.179 C 
ATOM     22  S   UNL d   1      12.946  -2.428   1.136  0.00  0.00    -0.040 SA
BRANCH  21  23
ATOM     23  N   UNL d   1      15.088  -3.311  -0.209  0.00  0.00    -0.300 N 
ATOM     24  C   UNL d   1      15.910  -2.791   0.819  0.00  0.00     0.247 C 
ATOM     25  O   UNL d   1      15.511  -2.263   1.857  0.00  0.00    -0.268 OA
ATOM     26  H   UNL d   1      15.543  -3.718  -1.014  0.00  0.00     0.171 HD
BRANCH  24  27
ATOM     27  C   UNL d   1      17.386  -2.862   0.703  0.00  0.00     0.075 C 
ATOM     28  C   UNL d   1      18.084  -2.359   1.750  0.00  0.00     0.017 C 
BRANCH  28  29
ATOM     29  C   UNL d   1      19.543  -2.260   1.817  0.00  0.00    -0.036 A 
ATOM     30  C   UNL d   1      20.240  -2.512   3.010  0.00  0.00     0.014 A 
ATOM     31  C   UNL d   1      21.627  -2.326   3.070  0.00  0.00     0.037 A 
ATOM     32  C   UNL d   1      22.320  -1.950   1.912  0.00  0.00     0.102 A 
ATOM     33  C   UNL d   1      21.628  -1.669   0.730  0.00  0.00     0.037 A 
ATOM     34  C   UNL d   1      20.243  -1.809   0.696  0.00  0.00     0.014 A 
BRANCH  32  35
ATOM     35  N   UNL d   1      23.788  -1.910   1.912  0.00  0.00    -0.116 N 
ATOM     36  O   UNL d   1      24.373  -2.190   2.966  0.00  0.00    -0.532 OA
ATOM     37  O   UNL d   1      24.353  -1.628   0.845  0.00  0.00    -0.532 OA
ENDBRANCH  32  35
ENDBRANCH  28  29
ENDBRANCH  24  27
ENDBRANCH  21  23
ENDBRANCH   1  21
TORSDOF 12
