@<TRIPOS>MOLECULE
*****
 53 55 0 0 0
SMALL
GASTEIGER

@<TRIPOS>ATOM
      1 C           1.2322    0.1363    0.4731 C.3     1  UNL1        0.0790
      2 O           2.6210   -0.0956    0.2458 O.3     1  UNL1       -0.4913
      3 C           3.1028   -1.0942   -0.5815 C.ar    1  UNL1        0.1659
      4 C           4.2586   -1.7255   -0.0385 C.ar    1  UNL1       -0.0039
      5 C           5.1038   -2.6297   -0.7649 C.ar    1  UNL1        0.0442
      6 C           6.4386   -3.0570   -0.1491 C.2     1  UNL1        0.2498
      7 O           6.6282   -2.5920    0.9725 O.2     1  UNL1       -0.2698
      8 N           7.4208   -3.8917   -0.8388 N.am    1  UNL1       -0.2627
      9 C           8.7338   -4.3189   -0.3598 C.2     1  UNL1        0.1533
     10 S           9.3597   -3.8651    1.1334 S.2     1  UNL1       -0.0170
     11 N           9.5192   -5.1881   -1.2192 N.am    1  UNL1       -0.2455
     12 N          10.9784   -5.8174   -0.6953 N.am    1  UNL1       -0.2337
     13 C          11.8558   -6.7893   -1.4290 C.2     1  UNL1        0.2488
     14 O          11.4977   -7.0700   -2.6123 O.2     1  UNL1       -0.2723
     15 C          13.3336   -7.4831   -0.6397 C.3     1  UNL1        0.1009
     16 N          14.6550   -8.4669   -1.2970 N.ar    1  UNL1       -0.3378
     17 C          15.4324   -7.4894   -1.9411 C.ar    1  UNL1        0.0062
     18 C          15.5619   -8.3280   -3.0060 C.ar    1  UNL1       -0.0364
     19 C          16.4994   -9.1508   -2.4149 C.ar    1  UNL1       -0.0001
     20 C          17.7213   -9.5174   -3.1533 C.ar    1  UNL1       -0.0526
     21 C          18.8190  -10.2012   -2.7354 C.ar    1  UNL1       -0.0611
     22 C          18.6642  -10.5350   -1.4385 C.ar    1  UNL1       -0.0598
     23 C          17.3656  -10.1866   -0.6794 C.ar    1  UNL1       -0.0376
     24 C          15.9810   -9.3901   -0.8661 C.ar    1  UNL1        0.0495
     25 C           4.6913   -2.9908   -2.0374 C.ar    1  UNL1       -0.0039
     26 C           3.5624   -2.3748   -2.6211 C.ar    1  UNL1        0.1659
     27 O           3.3712   -2.7699   -3.9404 O.3     1  UNL1       -0.4913
     28 C           2.3312   -2.1453   -4.7000 C.3     1  UNL1        0.0790
     29 C           2.7682   -1.4210   -1.9080 C.ar    1  UNL1        0.2035
     30 O           1.7937   -0.9115   -2.7039 O.3     1  UNL1       -0.4885
     31 C           0.7814   -0.1090   -2.2116 C.3     1  UNL1        0.0791
     32 H           1.0465    0.6163    1.4367 H       1  UNL1        0.0660
     33 H           0.6492   -0.7872    0.4404 H       1  UNL1        0.0660
     34 H           0.8485    0.9197   -0.1838 H       1  UNL1        0.0660
     35 H           4.5159   -1.4708    0.9938 H       1  UNL1        0.0663
     36 H           7.1502   -4.1787   -1.7665 H       1  UNL1        0.1569
     37 H           9.2430   -5.4918   -2.1506 H       1  UNL1        0.1718
     38 H          11.2144   -5.3793    0.1984 H       1  UNL1        0.1728
     39 H          13.1317   -7.8889    0.3440 H       1  UNL1        0.0588
     40 H          13.9148   -6.5459   -0.5770 H       1  UNL1        0.0588
     41 H          16.1004   -7.0650   -1.1807 H       1  UNL1        0.0809
     42 H          14.8645   -8.7616   -3.7096 H       1  UNL1        0.0639
     43 H          17.7895   -9.0824   -4.1528 H       1  UNL1        0.0624
     44 H          19.6790  -10.3960   -3.3829 H       1  UNL1        0.0618
     45 H          19.5272  -11.0633   -0.9975 H       1  UNL1        0.0618
     46 H          17.5012  -10.6605    0.3169 H       1  UNL1        0.0638
     47 H           5.2309   -3.7275   -2.6183 H       1  UNL1        0.0663
     48 H           2.3250   -2.5346   -5.7184 H       1  UNL1        0.0660
     49 H           2.4989   -1.0624   -4.7903 H       1  UNL1        0.0660
     50 H           1.3468   -2.3876   -4.2777 H       1  UNL1        0.0660
     51 H           0.0522    0.1828   -2.9666 H       1  UNL1        0.0660
     52 H           1.2750    0.8122   -1.9172 H       1  UNL1        0.0660
     53 H           0.2192   -0.7008   -1.4890 H       1  UNL1        0.0660
@<TRIPOS>BOND
     1     1     2    1
     2     2     3    1
     3     3     4   ar
     4     4     5   ar
     5     5     6    1
     6     6     7    2
     7     6     8   am
     8     8     9    1
     9     9    10    2
    10     9    11    1
    11    11    12    1
    12    12    13   am
    13    13    14    2
    14    13    15    1
    15    15    16    1
    16    16    17   ar
    17    17    18   ar
    18    18    19   ar
    19    19    20   ar
    20    20    21   ar
    21    21    22   ar
    22    22    23   ar
    23    23    24   ar
    24    19    24   ar
    25    16    24   ar
    26     5    25   ar
    27    25    26   ar
    28    26    27    1
    29    27    28    1
    30    26    29   ar
    31     3    29   ar
    32    29    30    1
    33    30    31    1
    34     1    32    1
    35     1    33    1
    36     1    34    1
    37     4    35    1
    38     8    36    1
    39    11    37    1
    40    12    38    1
    41    15    39    1
    42    15    40    1
    43    17    41    1
    44    18    42    1
    45    20    43    1
    46    21    44    1
    47    22    45    1
    48    23    46    1
    49    25    47    1
    50    28    48    1
    51    28    49    1
    52    28    50    1
    53    31    51    1
    54    31    52    1
    55    31    53    1
