@<TRIPOS>MOLECULE
*****
 57 60 0 0 0
SMALL
GASTEIGER

@<TRIPOS>ATOM
      1 C          -2.9518    9.6784   17.0904 C.3     1  UNL1        0.0788
      2 O          -3.0883    8.2601   16.9634 O.3     1  UNL1       -0.4950
      3 C          -3.2526    7.8328   15.6716 C.ar    1  UNL1        0.1221
      4 C          -2.5054    8.3512   14.6294 C.ar    1  UNL1       -0.0193
      5 C          -2.6972    7.8902   13.3354 C.ar    1  UNL1       -0.0489
      6 C          -3.6578    6.9010   13.0432 C.ar    1  UNL1        0.0031
      7 C          -4.1194    6.2704   11.8338 C.ar    1  UNL1       -0.0209
      8 C          -3.6627    6.5208   10.4128 C.3     1  UNL1       -0.0101
      9 C          -2.5387    7.5513   10.2981 C.3     1  UNL1        0.0157
     10 N          -2.0315    7.8603    8.9727 N.am    1  UNL1       -0.3143
     11 C          -1.0096    8.7924    8.8692 C.2     1  UNL1        0.2230
     12 O          -0.5642    9.3588    9.8737 O.2     1  UNL1       -0.2749
     13 C          -0.4973    9.0887    7.4449 C.3     1  UNL1        0.0733
     14 S           0.7877   10.4124    7.5363 S.3     1  UNL1       -0.1079
     15 C           1.4461   10.5886    5.8144 C.3     1  UNL1        0.1757
     16 N           0.5279   11.4891    5.0775 N.3     1  UNL1       -0.2341
     17 N           1.0458   12.8242    5.4170 N.4     1  UNL1        0.4192
     18 N           2.4737   12.6868    5.6015 N.3     1  UNL1       -0.1797
     19 N           2.6903   11.3439    5.9618 N.pl3   1  UNL1       -0.2016
     20 C           3.9766   10.8253    6.0913 C.ar    1  UNL1        0.0517
     21 C           4.4928    9.8206    5.2605 C.ar    1  UNL1       -0.0391
     22 C           5.7833    9.2984    5.4613 C.ar    1  UNL1       -0.0597
     23 C           6.5773    9.7513    6.5118 C.ar    1  UNL1       -0.0587
     24 C           6.0990   10.7495    7.3587 C.ar    1  UNL1       -0.0487
     25 C           6.9305   11.2101    8.5238 C.3     1  UNL1       -0.0397
     26 C           4.8171   11.2897    7.1261 C.ar    1  UNL1       -0.0362
     27 C          -5.1100    5.3834   12.2208 C.ar    1  UNL1        0.0060
     28 N          -5.2266    5.4202   13.5899 N.ar    1  UNL1       -0.3603
     29 C          -4.3720    6.3636   14.1157 C.ar    1  UNL1        0.0502
     30 C          -4.1695    6.7943   15.4427 C.ar    1  UNL1        0.0040
     31 H          -2.7868    9.9051   18.1468 H       1  UNL1        0.0660
     32 H          -3.8715   10.1784   16.7684 H       1  UNL1        0.0660
     33 H          -2.0913   10.0852   16.5482 H       1  UNL1        0.0660
     34 H          -1.7439    9.1085   14.7738 H       1  UNL1        0.0654
     35 H          -2.0702    8.3473   12.5825 H       1  UNL1        0.0625
     36 H          -4.5221    6.8607    9.8227 H       1  UNL1        0.0329
     37 H          -3.3269    5.5724    9.9769 H       1  UNL1        0.0329
     38 H          -1.6741    7.2052   10.8796 H       1  UNL1        0.0465
     39 H          -2.8920    8.5070   10.7055 H       1  UNL1        0.0465
     40 H          -2.4137    7.3725    8.1753 H       1  UNL1        0.1487
     41 H          -1.3408    9.4452    6.8466 H       1  UNL1        0.0472
     42 H          -0.0827    8.1713    7.0197 H       1  UNL1        0.0472
     43 H           1.5617    9.6243    5.3112 H       1  UNL1        0.0851
     44 H          -0.4296   11.3255    5.3881 H       1  UNL1        0.1771
     45 H           0.6196   13.1562    6.3077 H       1  UNL1        0.2445
     46 H           0.8298   13.5255    4.6830 H       1  UNL1        0.2445
     47 H           2.8556   13.3185    6.3205 H       1  UNL1        0.1991
     48 H           3.9243    9.4355    4.4188 H       1  UNL1        0.0636
     49 H           6.1779    8.5269    4.8016 H       1  UNL1        0.0618
     50 H           7.5648    9.3174    6.6693 H       1  UNL1        0.0620
     51 H           7.8993   10.6974    8.5556 H       1  UNL1        0.0278
     52 H           6.4147   10.9944    9.4651 H       1  UNL1        0.0278
     53 H           7.1266   12.2839    8.4525 H       1  UNL1        0.0278
     54 H           4.4515   12.0486    7.8146 H       1  UNL1        0.0639
     55 H          -5.7430    4.7233   11.6399 H       1  UNL1        0.0810
     56 H          -5.8693    4.8582   14.1332 H       1  UNL1        0.1653
     57 H          -4.7230    6.3620   16.2701 H       1  UNL1        0.0675
@<TRIPOS>UNITY_ATOM_ATTR
17 1
charge 1
@<TRIPOS>BOND
     1     1     2    1
     2     2     3    1
     3     3     4   ar
     4     4     5   ar
     5     5     6   ar
     6     6     7   ar
     7     7     8    1
     8     8     9    1
     9     9    10    1
    10    10    11   am
    11    11    12    2
    12    11    13    1
    13    13    14    1
    14    15    16    1
    15    16    17    1
    16    17    18    1
    17    18    19    1
    18    15    19    1
    19    19    20    1
    20    20    21   ar
    21    21    22   ar
    22    22    23   ar
    23    23    24   ar
    24    24    25    1
    25    24    26   ar
    26    20    26   ar
    27     7    27   ar
    28    27    28   ar
    29    28    29   ar
    30     6    29   ar
    31    29    30   ar
    32     3    30   ar
    33    15    14    1
    34     1    31    1
    35     1    32    1
    36     1    33    1
    37     4    34    1
    38     5    35    1
    39     8    36    1
    40     8    37    1
    41     9    38    1
    42     9    39    1
    43    10    40    1
    44    13    41    1
    45    13    42    1
    46    15    43    1
    47    16    44    1
    48    17    45    1
    49    17    46    1
    50    18    47    1
    51    21    48    1
    52    22    49    1
    53    23    50    1
    54    25    51    1
    55    25    52    1
    56    25    53    1
    57    26    54    1
    58    27    55    1
    59    28    56    1
    60    30    57    1
