@<TRIPOS>MOLECULE
*****
 72 75 0 0 0
SMALL
GASTEIGER

@<TRIPOS>ATOM
      1 C           1.2514   -8.6309    1.7420 C.3     1  UNL1       -0.0306
      2 C           2.2111   -8.0029    2.7256 C.3     1  UNL1        0.0897
      3 O           1.7517   -6.6810    3.0175 O.3     1  UNL1       -0.4636
      4 C           2.5317   -6.0481    3.9257 C.2     1  UNL1        0.3289
      5 O           3.6148   -6.4572    4.3304 O.2     1  UNL1       -0.2488
      6 C           1.9570   -4.7045    4.2272 C.3     1  UNL1        0.1422
      7 N           2.8214   -4.0483    5.1472 N.ar    1  UNL1       -0.2136
      8 N           2.5709   -4.0947    6.4651 N.ar    1  UNL1       -0.0432
      9 N           3.6285   -3.5581    7.0299 N.ar    1  UNL1       -0.0228
     10 N           4.5282   -3.2398    6.0781 N.ar    1  UNL1       -0.1075
     11 C           3.9876   -3.4105    4.8928 C.ar    1  UNL1        0.1999
     12 C           4.5623   -2.9178    3.5932 C.3     1  UNL1        0.0419
     13 C           3.5084   -2.1716    2.5692 C.3     1  UNL1       -0.0051
     14 C           3.5433   -0.6518    2.7683 C.3     1  UNL1       -0.0597
     15 N           5.5927   -1.7781    3.8953 N.4     1  UNL1        0.2484
     16 C           7.0445   -1.8465    3.6384 C.3     1  UNL1        0.0003
     17 C           7.3616   -2.1848    2.2395 C.ar    1  UNL1        0.0618
     18 C           6.4930   -2.3738    1.2339 C.ar    1  UNL1       -0.0392
     19 C           6.8961   -2.6514   -0.1001 C.ar    1  UNL1       -0.0007
     20 C           5.9299   -2.7522   -1.1030 C.ar    1  UNL1       -0.0524
     21 C           6.3692   -2.7764   -2.4015 C.ar    1  UNL1       -0.0579
     22 C           7.7230   -3.0396   -2.6430 C.ar    1  UNL1       -0.0456
     23 C           8.1418   -3.4024   -4.0267 C.3     1  UNL1       -0.0394
     24 C           8.6726   -3.0580   -1.5989 C.ar    1  UNL1       -0.0236
     25 C          10.1008   -3.4462   -1.7907 C.3     1  UNL1       -0.0375
     26 C           8.2554   -2.7430   -0.3302 C.ar    1  UNL1        0.0524
     27 N           9.1678   -2.5261    0.7243 N.ar    1  UNL1       -0.3215
     28 C           8.7944   -2.2036    1.9717 C.ar    1  UNL1        0.2575
     29 O           9.5961   -1.9168    2.8931 O.2     1  UNL1       -0.2674
     30 C           5.2187   -0.8617    5.0678 C.3     1  UNL1       -0.0199
     31 C           6.1061   -1.2620    6.2265 C.3     1  UNL1       -0.0096
     32 C           5.4607   -0.6931    7.4615 C.3     1  UNL1       -0.0480
     33 C           5.6705    0.8038    7.3393 C.3     1  UNL1       -0.0527
     34 C           4.9225    1.3865    6.1381 C.3     1  UNL1       -0.0480
     35 C           5.3112    0.6724    4.8330 C.3     1  UNL1       -0.0096
     36 H           1.5484   -9.6596    1.5256 H       1  UNL1        0.0262
     37 H           1.2281   -8.0626    0.8065 H       1  UNL1        0.0262
     38 H           0.2337   -8.6299    2.1451 H       1  UNL1        0.0262
     39 H           3.2196   -7.9689    2.2961 H       1  UNL1        0.0694
     40 H           2.2243   -8.5819    3.6549 H       1  UNL1        0.0694
     41 H           0.9544   -4.6979    4.6499 H       1  UNL1        0.0626
     42 H           1.9676   -4.1363    3.3070 H       1  UNL1        0.0626
     43 H           5.0971   -3.7476    3.0920 H       1  UNL1        0.0936
     44 H           3.6708   -2.4218    1.5111 H       1  UNL1        0.0322
     45 H           2.4774   -2.4553    2.7329 H       1  UNL1        0.0322
     46 H           4.5207   -0.1937    2.5584 H       1  UNL1        0.0232
     47 H           3.2373   -0.6020    3.8047 H       1  UNL1        0.0232
     48 H           2.9118    0.0945    2.3121 H       1  UNL1        0.0232
     49 H           5.4901   -1.2985    3.0333 H       1  UNL1        0.2047
     50 H           7.3739   -0.8025    3.7635 H       1  UNL1        0.0869
     51 H           7.5195   -2.4868    4.3761 H       1  UNL1        0.0869
     52 H           5.4422   -2.2924    1.2807 H       1  UNL1        0.0630
     53 H           4.8618   -2.7709   -0.8965 H       1  UNL1        0.0624
     54 H           5.6594   -2.6324   -3.2132 H       1  UNL1        0.0620
     55 H           7.3063   -3.3454   -4.7260 H       1  UNL1        0.0278
     56 H           8.5000   -4.4366   -4.0063 H       1  UNL1        0.0278
     57 H           8.9334   -2.7249   -4.3518 H       1  UNL1        0.0278
     58 H          10.3258   -3.7225   -2.8163 H       1  UNL1        0.0278
     59 H          10.3133   -4.3151   -1.1557 H       1  UNL1        0.0278
     60 H          10.7454   -2.6102   -1.5084 H       1  UNL1        0.0278
     61 H          10.1643   -2.5406    0.5561 H       1  UNL1        0.1689
     62 H           4.1641   -1.0322    5.3330 H       1  UNL1        0.0851
     63 H           7.1107   -0.8747    6.0547 H       1  UNL1        0.0320
     64 H           6.2918   -2.3289    6.3327 H       1  UNL1        0.0320
     65 H           5.9444   -1.1397    8.3293 H       1  UNL1        0.0267
     66 H           4.3848   -0.9255    7.5363 H       1  UNL1        0.0267
     67 H           6.7414    0.9729    7.1769 H       1  UNL1        0.0265
     68 H           5.3729    1.2930    8.2632 H       1  UNL1        0.0265
     69 H           5.1330    2.4563    6.0443 H       1  UNL1        0.0267
     70 H           3.8373    1.2880    6.2912 H       1  UNL1        0.0267
     71 H           6.3177    0.9553    4.5191 H       1  UNL1        0.0320
     72 H           4.6337    1.0900    4.0785 H       1  UNL1        0.0320
@<TRIPOS>UNITY_ATOM_ATTR
15 1
charge 1
@<TRIPOS>BOND
     1     1     2    1
     2     2     3    1
     3     3     4    1
     4     4     5    2
     5     4     6    1
     6     6     7    1
     7     7     8   ar
     8     8     9   ar
     9     9    10   ar
    10    10    11   ar
    11     7    11   ar
    12    13    14    1
    13    16    17    1
    14    17    18   ar
    15    18    19   ar
    16    19    20   ar
    17    20    21   ar
    18    21    22   ar
    19    22    23    1
    20    22    24   ar
    21    24    25    1
    22    24    26   ar
    23    19    26   ar
    24    26    27   ar
    25    27    28   ar
    26    17    28   ar
    27    28    29    2
    28    15    30    1
    29    30    31    1
    30    31    32    1
    31    32    33    1
    32    33    34    1
    33    34    35    1
    34    30    35    1
    35    15    16    1
    36    15    12    1
    37    12    13    1
    38    12    11    1
    39     1    36    1
    40     1    37    1
    41     1    38    1
    42     2    39    1
    43     2    40    1
    44     6    41    1
    45     6    42    1
    46    12    43    1
    47    13    44    1
    48    13    45    1
    49    14    46    1
    50    14    47    1
    51    14    48    1
    52    15    49    1
    53    16    50    1
    54    16    51    1
    55    18    52    1
    56    20    53    1
    57    21    54    1
    58    23    55    1
    59    23    56    1
    60    23    57    1
    61    25    58    1
    62    25    59    1
    63    25    60    1
    64    27    61    1
    65    30    62    1
    66    31    63    1
    67    31    64    1
    68    32    65    1
    69    32    66    1
    70    33    67    1
    71    33    68    1
    72    34    69    1
    73    34    70    1
    74    35    71    1
    75    35    72    1
