REMARK  9 active torsions:
REMARK  status: ('A' for Active; 'I' for Inactive)
REMARK    1  A    between atoms: CA_4  and  C_2 
REMARK    2  A    between atoms: CA_4  and  N_15 
REMARK    3  A    between atoms: CA_4  and  CB_5 
REMARK    4  A    between atoms: CB_5  and  CG_6 
REMARK       I    between atoms: N_15  and  C_16 
REMARK    5  A    between atoms: C_16  and  C_18 
REMARK    6  A    between atoms: C_18  and  C_19 
REMARK    7  A    between atoms: C_18  and  N_26 
REMARK    8  A    between atoms: C_19  and  C_20 
REMARK    9  A    between atoms: C_36  and  O_37 
ROOT
ATOM      1  C   UNK d   0       6.941  -1.397  -1.377  0.00  0.00     0.188 C 
ENDROOT
BRANCH   1   2
ATOM      2  C   UNK d   0       5.400  -1.635  -1.458  0.00  0.00     0.241 C 
ATOM      3  N   TRP d   1       4.563  -0.679  -0.899  0.00  0.00    -0.344 N 
ATOM      4  H   TRP d   1       4.900   0.035  -0.272  0.00  0.00     0.163 HD
ATOM      5  O   UNK d   0       4.954  -2.692  -1.902  0.00  0.00    -0.271 OA
BRANCH   3   6
ATOM      6  CA  TRP d   1       3.084  -0.807  -1.035  0.00  0.00     0.190 C 
BRANCH   6   7
ATOM      7  CB  TRP d   1       2.332   0.076  -0.006  0.00  0.00     0.077 C 
BRANCH   7   8
ATOM      8  CG  TRP d   1       1.317  -0.625   0.870  0.00  0.00    -0.028 A 
ATOM      9  CD1 TRP d   1       0.927  -1.950   0.859  0.00  0.00     0.096 A 
ATOM     10  NE1 TRP d   1      -0.029  -2.135   1.820  0.00  0.00    -0.365 N 
ATOM     11  CE2 TRP d   1      -0.327  -0.942   2.433  0.00  0.00     0.042 A 
ATOM     12  HE1 TRP d   1      -0.479  -3.017   2.015  0.00  0.00     0.165 HD
ATOM     13  CZ2 TRP d   1      -1.273  -0.638   3.420  0.00  0.00     0.030 A 
ATOM     14  CD2 TRP d   1       0.508   0.021   1.866  0.00  0.00    -0.002 A 
ATOM     15  CH2 TRP d   1      -1.380   0.698   3.823  0.00  0.00     0.002 A 
ATOM     16  CZ3 TRP d   1      -0.557   1.682   3.280  0.00  0.00     0.001 A 
ATOM     17  CE3 TRP d   1       0.397   1.354   2.311  0.00  0.00     0.014 A 
ENDBRANCH   7   8
ENDBRANCH   6   7
BRANCH   6  18
ATOM     18  C   TRP d   1       2.596  -0.519  -2.511  0.00  0.00     0.197 C 
ATOM     19  O   TRP d   1       3.151  -1.196  -3.426  0.00  0.00    -0.646 OA
ATOM     20  OXT TRP d   1       1.741   0.401  -2.659  0.00  0.00    -0.646 OA
ENDBRANCH   6  18
ENDBRANCH   3   6
ENDBRANCH   1   2
BRANCH   1  21
ATOM     21  C   UNK d   0       7.317  -1.591   0.126  0.00  0.00     0.073 C 
BRANCH  21  22
ATOM     22  C   UNK d   0       6.713  -0.604   1.104  0.00  0.00    -0.056 A 
ATOM     23  C   UNK d   0       6.907   0.777   0.943  0.00  0.00     0.007 A 
ATOM     24  C   UNK d   0       6.416   1.673   1.890  0.00  0.00     0.001 A 
ATOM     25  C   UNK d   0       5.674   1.205   2.972  0.00  0.00     0.000 A 
ATOM     26  C   UNK d   0       5.432  -0.161   3.115  0.00  0.00     0.001 A 
ATOM     27  C   UNK d   0       5.952  -1.063   2.188  0.00  0.00     0.007 A 
ENDBRANCH  21  22
ENDBRANCH   1  21
BRANCH   1  28
ATOM     28  N   UNK d   0       7.806  -2.238  -2.300  0.00  0.00    -0.290 N 
ATOM     29  C   UNK d   0       9.181  -2.252  -2.118  0.00  0.00     0.260 C 
ATOM     30  O   UNK d   0       9.812  -1.510  -1.383  0.00  0.00    -0.267 OA
ATOM     31  C   UNK d   0       9.935  -3.224  -2.922  0.00  0.00     0.058 C 
ATOM     32  C   UNK d   0      11.059  -3.865  -2.414  0.00  0.00     0.019 C 
ATOM     33  C   UNK d   0       9.458  -3.482  -4.202  0.00  0.00     0.047 C 
ATOM     34  C   UNK d   0      11.796  -4.695  -3.251  0.00  0.00     0.001 C 
ATOM     35  C   UNK d   0      11.408  -4.856  -4.585  0.00  0.00     0.002 C 
ATOM     36  C   UNK d   0      10.260  -4.218  -5.077  0.00  0.00     0.030 C 
ATOM     37  N   UNK d   0       8.137  -3.151  -4.510  0.00  0.00    -0.346 N 
ATOM     38  C   UNK d   0       7.232  -3.058  -3.355  0.00  0.00     0.332 C 
ATOM     39  H   UNK d   0       8.015  -2.407  -5.191  0.00  0.00     0.164 HD
BRANCH  38  40
ATOM     40  O   UNK d   0       7.070  -4.368  -2.850  0.00  0.00    -0.359 OA
ATOM     41  H   UNK d   0       7.823  -4.863  -3.198  0.00  0.00     0.214 HD
ENDBRANCH  38  40
ENDBRANCH   1  28
TORSDOF 9
