@<TRIPOS>MOLECULE
*****
 34 36 0 0 0
SMALL
GASTEIGER

@<TRIPOS>ATOM
      1 O           0.9509    0.1171   -0.0558 O.2     1  UNL1       -0.2681
      2 C           2.1869    0.0657   -0.0408 C.2     1  UNL1        0.2668
      3 N           2.9083    0.6568    0.9974 N.am    1  UNL1       -0.2297
      4 N           2.2334    1.3897    2.0196 N.am    1  UNL1       -0.2300
      5 C           2.9732    2.0481    2.9929 C.2     1  UNL1        0.2637
      6 O           4.2039    2.0968    2.9637 O.2     1  UNL1       -0.2685
      7 C           2.2349    2.7405    4.1010 C.ar    1  UNL1        0.0795
      8 C           2.7385    3.9661    4.5769 C.ar    1  UNL1       -0.0460
      9 C           2.1522    4.6114    5.6750 C.ar    1  UNL1       -0.0608
     10 C           1.0713    4.0258    6.3295 C.ar    1  UNL1       -0.0583
     11 C           0.5583    2.8100    5.8691 C.ar    1  UNL1       -0.0194
     12 C           1.1280    2.1803    4.7503 C.ar    1  UNL1        0.1290
     13 O           0.6105    0.9954    4.3059 O.3     1  UNL1       -0.5060
     14 C           2.9834   -0.5956   -1.0797 C.ar    1  UNL1        0.0764
     15 C           4.1311   -1.3566   -0.9588 C.ar    1  UNL1       -0.0347
     16 C           4.6657   -1.8136   -2.2172 C.ar    1  UNL1       -0.0101
     17 C           5.8335   -2.5673   -2.4991 C.ar    1  UNL1       -0.0535
     18 C           6.1862   -2.8819   -3.8155 C.ar    1  UNL1       -0.0611
     19 C           5.3809   -2.4723   -4.8675 C.ar    1  UNL1       -0.0607
     20 C           4.2117   -1.7402   -4.6226 C.ar    1  UNL1       -0.0474
     21 C           3.8658   -1.4125   -3.2893 C.ar    1  UNL1        0.0201
     22 S           2.4927   -0.5230   -2.7256 S.2     1  UNL1       -0.0836
     23 H           3.9237    0.7291    0.9961 H       1  UNL1        0.1731
     24 H           1.2173    1.3140    2.0586 H       1  UNL1        0.1731
     25 H           3.6000    4.4254    4.0960 H       1  UNL1        0.0626
     26 H           2.5498    5.5611    6.0299 H       1  UNL1        0.0618
     27 H           0.6347    4.5145    7.1999 H       1  UNL1        0.0619
     28 H          -0.2766    2.3667    6.4063 H       1  UNL1        0.0654
     29 H          -0.1237    0.7244    4.8832 H       1  UNL1        0.2922
     30 H           4.5872   -1.5935   -0.0066 H       1  UNL1        0.0636
     31 H           6.4743   -2.8938   -1.6841 H       1  UNL1        0.0624
     32 H           7.0965   -3.4452   -4.0112 H       1  UNL1        0.0618
     33 H           5.6631   -2.7226   -5.8892 H       1  UNL1        0.0618
     34 H           3.5888   -1.4252   -5.4564 H       1  UNL1        0.0629
@<TRIPOS>BOND
     1     1     2    2
     2     2     3   am
     3     3     4    1
     4     4     5   am
     5     5     6    2
     6     5     7    1
     7     7     8   ar
     8     8     9   ar
     9     9    10   ar
    10    10    11   ar
    11    11    12   ar
    12     7    12   ar
    13    12    13    1
    14     2    14    1
    15    14    15   ar
    16    15    16   ar
    17    16    17   ar
    18    17    18   ar
    19    18    19   ar
    20    19    20   ar
    21    20    21   ar
    22    16    21   ar
    23    21    22   ar
    24    14    22   ar
    25     3    23    1
    26     4    24    1
    27     8    25    1
    28     9    26    1
    29    10    27    1
    30    11    28    1
    31    13    29    1
    32    15    30    1
    33    17    31    1
    34    18    32    1
    35    19    33    1
    36    20    34    1
