REMARK  3 active torsions:
REMARK  status: ('A' for Active; 'I' for Inactive)
REMARK       I    between atoms: C_2  and  N_3 
REMARK    1  A    between atoms: C_2  and  C_9 
REMARK    2  A    between atoms: N_3  and  O_4 
REMARK    3  A    between atoms: O_4  and  C_5 
ROOT
ATOM      1  C   UNL d   1       2.986  -0.354  -1.274  0.00  0.00     0.106 A 
ATOM      2  C   UNL d   1       2.687   0.068  -2.573  0.00  0.00     0.075 A 
ATOM      3  C   UNL d   1       3.698  -0.493  -3.370  0.00  0.00     0.103 A 
ATOM      4  O   UNL d   1       4.069  -0.508  -4.678  0.00  0.00    -0.320 OA
ATOM      5  C   UNL d   1       5.183  -1.300  -4.709  0.00  0.00     0.145 A 
ATOM      6  C   UNL d   1       5.525  -1.793  -3.469  0.00  0.00     0.057 A 
ATOM      7  C   UNL d   1       4.542  -1.234  -2.628  0.00  0.00     0.068 A 
ATOM      8  N   UNL d   1       4.110  -1.171  -1.329  0.00  0.00    -0.349 N 
ATOM      9  H   UNL d   1       4.536  -1.693  -0.574  0.00  0.00     0.166 HD
ENDROOT
BRANCH   1  10
ATOM     10  C   UNL d   1       2.218  -0.070  -0.065  0.00  0.00     0.291 C 
ATOM     11  O   UNL d   1       0.990  -0.003  -0.078  0.00  0.00    -0.264 OA
ATOM     12  N   UNL d   1       2.985   0.137   1.066  0.00  0.00    -0.229 N 
ATOM     13  H   UNL d   1       3.983   0.286   1.021  0.00  0.00     0.198 HD
BRANCH  12  14
ATOM     14  O   UNL d   1       2.285   0.569   2.224  0.00  0.00    -0.272 OA
BRANCH  14  15
ATOM     15  C   UNL d   1       3.199   0.879   3.307  0.00  0.00     0.152 C 
ATOM     16  C   UNL d   1       2.885   2.182   4.096  0.00  0.00     0.034 C 
ATOM     17  C   UNL d   1       3.299   1.436   5.380  0.00  0.00     0.005 C 
ATOM     18  C   UNL d   1       2.929   0.133   4.644  0.00  0.00     0.034 C 
ENDBRANCH  14  15
ENDBRANCH  12  14
ENDBRANCH   1  10
TORSDOF 3
