REMARK  4 active torsions:
REMARK  status: ('A' for Active; 'I' for Inactive)
REMARK    1  A    between atoms: C_2  and  C_3 
REMARK    2  A    between atoms: C_3  and  O_4 
REMARK    3  A    between atoms: O_4  and  N_5 
REMARK       I    between atoms: N_5  and  C_6 
REMARK       I    between atoms: C_6  and  N_8 
REMARK    4  A    between atoms: N_8  and  C_9 
ROOT
ATOM      1  N   UNL d   1       5.367  -1.216   2.074  0.00  0.00    -0.216 N 
ATOM      2  C   UNL d   1       6.742  -1.133   1.968  0.00  0.00     0.344 C 
ATOM      3  O   UNL d   1       7.300  -0.585   1.015  0.00  0.00    -0.245 OA
ATOM      4  N   UNL d   1       7.432  -1.745   3.019  0.00  0.00    -0.307 N 
ATOM      5  H   UNL d   1       4.865  -1.649   2.834  0.00  0.00     0.199 HD
ATOM      6  H   UNL d   1       6.936  -2.422   3.580  0.00  0.00     0.170 HD
ENDROOT
BRANCH   4   7
ATOM      7  C   UNL d   1       8.854  -1.777   3.067  0.00  0.00     0.036 A 
ATOM      8  C   UNL d   1       9.600  -0.637   2.743  0.00  0.00     0.031 A 
ATOM      9  C   UNL d   1      10.998  -0.659   2.753  0.00  0.00     0.026 A 
ATOM     10  C   UNL d   1      11.669  -1.833   3.073  0.00  0.00     0.034 A 
ATOM     11 CL   UNL d   1      13.389  -1.871   3.030  0.00  0.00    -0.084 Cl
ATOM     12  C   UNL d   1      10.947  -2.974   3.423  0.00  0.00     0.026 A 
ATOM     13  C   UNL d   1       9.540  -2.941   3.445  0.00  0.00     0.031 A 
ENDBRANCH   4   7
BRANCH   1  14
ATOM     14  O   UNL d   1       4.629  -0.617   1.007  0.00  0.00    -0.273 OA
BRANCH  14  15
ATOM     15  C   UNL d   1       3.220  -0.743   1.224  0.00  0.00     0.228 C 
BRANCH  15  16
ATOM     16  C   UNL d   1       2.448  -0.098   0.104  0.00  0.00    -0.009 C 
ATOM     17  C   UNL d   1       1.105  -0.073   0.061  0.00  0.00     0.009 C 
ENDBRANCH  15  16
ENDBRANCH  14  15
ENDBRANCH   1  14
TORSDOF 4
