REMARK  7 active torsions:
REMARK  status: ('A' for Active; 'I' for Inactive)
REMARK    1  A    between atoms: C_4  and  C_5 
REMARK    2  A    between atoms: C_6  and  C_7 
REMARK       I    between atoms: C_7  and  N_9 
REMARK    3  A    between atoms: N_9  and  C_10 
REMARK    4  A    between atoms: C_11  and  C_10 
REMARK    5  A    between atoms: C_11  and  C_13 
REMARK    6  A    between atoms: C_11  and  O_12 
REMARK    7  A    between atoms: C_16  and  N_17 
ROOT
ATOM      1  C   UNL d   1       9.578  -2.135   4.174  0.00  0.00     0.223 C 
ATOM      2  O   UNL d   1      10.315  -2.253   5.153  0.00  0.00    -0.273 OA
ATOM      3  N   UNL d   1       9.162  -0.911   3.697  0.00  0.00    -0.358 N 
ATOM      4  H   UNL d   1       8.469  -0.850   2.959  0.00  0.00     0.162 HD
ENDROOT
BRANCH   3   5
ATOM      5  C   UNL d   1       9.519   0.309   4.410  0.00  0.00     0.159 C 
BRANCH   5   6
ATOM      6  C   UNL d   1       9.280   1.627   3.622  0.00  0.00     0.169 C 
BRANCH   6   7
ATOM      7  C   UNL d   1      10.527   2.486   3.479  0.00  0.00    -0.028 C 
ATOM      8  C   UNL d   1      11.808   1.911   3.416  0.00  0.00     0.012 C 
ATOM      9  C   UNL d   1      12.954   2.697   3.489  0.00  0.00     0.037 C 
ATOM     10  C   UNL d   1      12.834   4.086   3.459  0.00  0.00     0.102 C 
ATOM     11  C   UNL d   1      11.570   4.690   3.452  0.00  0.00     0.037 C 
ATOM     12  C   UNL d   1      10.422   3.888   3.469  0.00  0.00     0.012 C 
BRANCH  10  13
ATOM     13  N   UNL d   1      14.046   4.904   3.347  0.00  0.00    -0.116 N 
ATOM     14  O   UNL d   1      15.137   4.315   3.328  0.00  0.00    -0.532 OA
ATOM     15  O   UNL d   1      13.907   6.130   3.247  0.00  0.00    -0.532 OA
ENDBRANCH  10  13
ENDBRANCH   6   7
BRANCH   6  16
ATOM     16  O   UNL d   1       8.727   1.360   2.331  0.00  0.00    -0.389 OA
ATOM     17  H   UNL d   1       9.436   0.949   1.808  0.00  0.00     0.210 HD
ENDBRANCH   6  16
ENDBRANCH   5   6
ENDBRANCH   3   5
BRANCH   1  18
ATOM     18  C   UNL d   1       9.069  -3.333   3.437  0.00  0.00     0.094 A 
ATOM     19  C   UNL d   1       9.455  -4.743   3.890  0.00  0.00     0.030 A 
ATOM     20  C   UNL d   1       8.035  -4.261   4.068  0.00  0.00    -0.027 A 
ATOM     21  C   UNL d   1       6.939  -4.815   3.193  0.00  0.00     0.016 C 
ATOM     22  C   UNL d   1       7.587  -3.987   5.484  0.00  0.00     0.016 C 
BRANCH  19  23
ATOM     23  C   UNL d   1       9.816  -5.767   2.889  0.00  0.00    -0.019 C 
ATOM     24  C   UNL d   1      11.023  -5.860   2.296  0.00  0.00    -0.091 C 
ATOM     25  C   UNL d   1      11.358  -6.970   1.339  0.00  0.00     0.042 C 
ATOM     26  C   UNL d   1      12.090  -4.853   2.615  0.00  0.00     0.042 C 
ENDBRANCH  19  23
ENDBRANCH   1  18
TORSDOF 7
