@<TRIPOS>MOLECULE
*****
 63 65 0 0 0
SMALL
GASTEIGER

@<TRIPOS>ATOM
      1 C           1.0186    0.1580    0.1424 C.3     1  UNL1       -0.0652
      2 C           2.5212    0.2544    0.1858 C.3     1  UNL1       -0.0538
      3 C           3.1211   -1.0215    0.7321 C.3     1  UNL1       -0.0256
      4 C           4.6022   -1.3188    0.6638 C.3     1  UNL1        0.1073
      5 C           5.0600   -0.3179    1.7277 C.2     1  UNL1        0.2342
      6 O           5.3335   -0.6254    2.8743 O.2     1  UNL1       -0.2738
      7 N           5.0100    1.0024    1.3090 N.am    1  UNL1       -0.3109
      8 C           5.2918    2.0340    2.2542 C.3     1  UNL1        0.0232
      9 C           6.7802    2.3010    2.2404 C.3     1  UNL1       -0.0345
     10 C           6.8935    3.6513    2.9089 C.3     1  UNL1       -0.0513
     11 C           5.5890    4.3869    2.5888 C.3     1  UNL1       -0.0513
     12 C           4.6773    3.3778    1.8984 C.3     1  UNL1       -0.0345
     13 N           4.9576   -2.8008    0.8188 N.am    1  UNL1       -0.2551
     14 C           4.0302   -3.9141    1.0475 C.2     1  UNL1        0.2614
     15 O           4.4481   -4.9820    1.4902 O.2     1  UNL1       -0.2689
     16 C           2.5764   -3.8008    0.7752 C.ar    1  UNL1        0.1156
     17 S           1.4407   -4.0804    2.0421 S.2     1  UNL1        0.0190
     18 N           0.0941   -3.4713    1.2529 N.ar    1  UNL1       -0.2031
     19 C           0.4290   -3.1793   -0.0139 C.ar    1  UNL1        0.1554
     20 C          -0.5023   -2.4729   -0.9350 C.2     1  UNL1        0.2624
     21 N          -1.7674   -2.1720   -0.5268 N.am    1  UNL1       -0.3240
     22 O          -0.1430   -2.0444   -2.0473 O.2     1  UNL1       -0.2687
     23 C           1.8302   -3.4516   -0.3471 C.ar    1  UNL1        0.0765
     24 N           2.3882   -3.0546   -1.5385 N.pl3   1  UNL1       -0.3551
     25 C           6.4047   -3.0840    0.8786 C.ar    1  UNL1        0.0374
     26 C           6.9718   -4.2865    0.4335 C.ar    1  UNL1       -0.0400
     27 C           8.3462   -4.5749    0.6275 C.ar    1  UNL1       -0.0568
     28 C           9.2053   -3.6467    1.2282 C.ar    1  UNL1       -0.0475
     29 C          10.6909   -3.8825    1.3487 C.3     1  UNL1       -0.0305
     30 C          11.4574   -2.7141    1.9778 C.3     1  UNL1       -0.0613
     31 C           8.6500   -2.4527    1.6461 C.ar    1  UNL1       -0.0568
     32 C           7.3132   -2.1665    1.4136 C.ar    1  UNL1       -0.0400
     33 H           0.5807    1.1238   -0.1001 H       1  UNL1        0.0230
     34 H           0.6058   -0.2168    1.0846 H       1  UNL1        0.0230
     35 H           0.7514   -0.5049   -0.6640 H       1  UNL1        0.0230
     36 H           2.7355    1.1094    0.8119 H       1  UNL1        0.0263
     37 H           2.8996    0.4023   -0.8344 H       1  UNL1        0.0263
     38 H           2.7776   -1.6544   -0.0177 H       1  UNL1        0.0288
     39 H           2.7103   -1.3015    1.7085 H       1  UNL1        0.0288
     40 H           4.9998   -1.0444   -0.3267 H       1  UNL1        0.0600
     41 H           4.6300    1.2700    0.4105 H       1  UNL1        0.1490
     42 H           4.9470    1.7236    3.2486 H       1  UNL1        0.0498
     43 H           7.1446    2.3531    1.2053 H       1  UNL1        0.0283
     44 H           7.3461    1.5123    2.7460 H       1  UNL1        0.0283
     45 H           7.7711    4.1920    2.5473 H       1  UNL1        0.0266
     46 H           6.9953    3.5184    3.9915 H       1  UNL1        0.0266
     47 H           5.7683    5.2458    1.9357 H       1  UNL1        0.0266
     48 H           5.1303    4.7600    3.5110 H       1  UNL1        0.0266
     49 H           4.6844    3.5463    0.8146 H       1  UNL1        0.0283
     50 H           3.6350    3.4604    2.2284 H       1  UNL1        0.0283
     51 H          -2.1504   -2.4980    0.3498 H       1  UNL1        0.1453
     52 H          -2.3448   -1.6483   -1.1733 H       1  UNL1        0.1453
     53 H           1.8842   -2.2807   -2.0009 H       1  UNL1        0.1424
     54 H           3.3865   -2.8528   -1.5665 H       1  UNL1        0.1424
     55 H           6.3721   -5.0147   -0.1079 H       1  UNL1        0.0636
     56 H           8.7352   -5.5399    0.3083 H       1  UNL1        0.0621
     57 H          11.0866   -4.0377    0.3381 H       1  UNL1        0.0311
     58 H          10.8739   -4.7896    1.9339 H       1  UNL1        0.0311
     59 H          11.3097   -1.7913    1.4009 H       1  UNL1        0.0233
     60 H          12.5302   -2.9106    2.0122 H       1  UNL1        0.0233
     61 H          11.1152   -2.5285    3.0036 H       1  UNL1        0.0233
     62 H           9.2198   -1.6905    2.1714 H       1  UNL1        0.0621
     63 H           7.0770   -1.1802    1.7585 H       1  UNL1        0.0636
@<TRIPOS>BOND
     1     1     2    1
     2     2     3    1
     3     3     4    1
     4     4     5    1
     5     5     6    2
     6     5     7   am
     7     7     8    1
     8     8     9    1
     9     9    10    1
    10    10    11    1
    11    11    12    1
    12     8    12    1
    13     4    13    1
    14    13    14   am
    15    14    15    2
    16    14    16    1
    17    16    17   ar
    18    17    18   ar
    19    18    19   ar
    20    19    20    1
    21    20    21   am
    22    20    22    2
    23    19    23   ar
    24    16    23   ar
    25    23    24    1
    26    13    25    1
    27    25    26   ar
    28    26    27   ar
    29    27    28   ar
    30    28    29    1
    31    29    30    1
    32    28    31   ar
    33    31    32   ar
    34    25    32   ar
    35     1    33    1
    36     1    34    1
    37     1    35    1
    38     2    36    1
    39     2    37    1
    40     3    38    1
    41     3    39    1
    42     4    40    1
    43     7    41    1
    44     8    42    1
    45     9    43    1
    46     9    44    1
    47    10    45    1
    48    10    46    1
    49    11    47    1
    50    11    48    1
    51    12    49    1
    52    12    50    1
    53    21    51    1
    54    21    52    1
    55    24    53    1
    56    24    54    1
    57    26    55    1
    58    27    56    1
    59    29    57    1
    60    29    58    1
    61    30    59    1
    62    30    60    1
    63    30    61    1
    64    31    62    1
    65    32    63    1
