REMARK  12 active torsions:
REMARK  status: ('A' for Active; 'I' for Inactive)
REMARK    1  A    between atoms: C_2  and  C_3 
REMARK    2  A    between atoms: C_3  and  C_4 
REMARK    3  A    between atoms: C_4  and  O_5 
REMARK    4  A    between atoms: O_5  and  C_6 
REMARK    5  A    between atoms: C_9  and  C_10 
REMARK    6  A    between atoms: C_10  and  O_12 
REMARK    7  A    between atoms: O_12  and  C_13 
REMARK    8  A    between atoms: C_16  and  C_17 
REMARK    9  A    between atoms: N_18  and  N_19 
REMARK       I    between atoms: N_19  and  C_20 
REMARK   10  A    between atoms: C_20  and  C_22 
REMARK   11  A    between atoms: C_25  and  O_26 
REMARK   12  A    between atoms: C_28  and  O_29 
ROOT
ATOM      1  C   UNL d   1      12.728   1.804   3.026  0.00  0.00     0.079 A 
ATOM      2  C   UNL d   1      13.467   2.933   2.655  0.00  0.00     0.038 A 
ATOM      3  C   UNL d   1      14.879   2.919   2.744  0.00  0.00     0.015 A 
ATOM      4  C   UNL d   1      15.549   1.800   3.265  0.00  0.00    -0.017 A 
ATOM      5  C   UNL d   1      14.799   0.670   3.606  0.00  0.00     0.015 A 
ATOM      6  C   UNL d   1      13.402   0.663   3.467  0.00  0.00     0.038 A 
ENDROOT
BRANCH   4   7
ATOM      7  C   UNL d   1      17.030   1.818   3.511  0.00  0.00     0.150 C 
ATOM      8  N   UNL d   1      17.639   0.794   4.027  0.00  0.00    -0.183 NA
BRANCH   8   9
ATOM      9  N   UNL d   1      18.993   0.878   4.277  0.00  0.00    -0.243 N 
ATOM     10  C   UNL d   1      19.653  -0.219   4.839  0.00  0.00     0.274 C 
ATOM     11  O   UNL d   1      19.121  -1.297   5.107  0.00  0.00    -0.266 OA
ATOM     12  H   UNL d   1      19.489   1.753   4.141  0.00  0.00     0.192 HD
BRANCH  10  13
ATOM     13  C   UNL d   1      21.118  -0.086   5.127  0.00  0.00     0.067 A 
ATOM     14  C   UNL d   1      21.949  -1.208   4.923  0.00  0.00     0.022 A 
ATOM     15  C   UNL d   1      23.294  -1.198   5.325  0.00  0.00     0.037 A 
ATOM     16  C   UNL d   1      23.823  -0.046   5.894  0.00  0.00     0.068 A 
ATOM     17  C   UNL d   1      23.020   1.074   6.103  0.00  0.00     0.074 A 
ATOM     18  C   UNL d   1      21.674   1.056   5.710  0.00  0.00     0.084 A 
BRANCH  16  19
ATOM     19  O   UNL d   1      25.138   0.039   6.250  0.00  0.00    -0.361 OA
ATOM     20  H   UNL d   1      25.609  -0.753   5.940  0.00  0.00     0.217 HD
ENDBRANCH  16  19
BRANCH  18  21
ATOM     21  O   UNL d   1      20.898   2.167   5.902  0.00  0.00    -0.360 OA
ATOM     22  H   UNL d   1      21.415   2.832   6.388  0.00  0.00     0.217 HD
ENDBRANCH  18  21
ENDBRANCH  10  13
ENDBRANCH   8   9
ENDBRANCH   4   7
BRANCH   1  23
ATOM     23  O   UNL d   1      11.314   1.829   2.858  0.00  0.00    -0.275 OA
BRANCH  23  24
ATOM     24  C   UNL d   1      10.519   1.222   3.827  0.00  0.00     0.298 C 
ATOM     25  O   UNL d   1      10.922   0.765   4.897  0.00  0.00    -0.259 OA
BRANCH  24  26
ATOM     26  C   UNL d   1       9.070   1.124   3.458  0.00  0.00     0.040 A 
ATOM     27  C   UNL d   1       8.208   0.493   4.374  0.00  0.00     0.020 A 
ATOM     28  C   UNL d   1       6.859   0.271   4.069  0.00  0.00     0.038 A 
ATOM     29  C   UNL d   1       6.325   0.730   2.866  0.00  0.00     0.068 A 
ATOM     30  C   UNL d   1       7.162   1.394   1.966  0.00  0.00     0.038 A 
ATOM     31  C   UNL d   1       8.530   1.583   2.252  0.00  0.00     0.020 A 
BRANCH  29  32
ATOM     32  O   UNL d   1       4.972   0.578   2.715  0.00  0.00    -0.351 OA
BRANCH  32  33
ATOM     33  C   UNL d   1       4.515   0.302   1.389  0.00  0.00     0.175 C 
BRANCH  33  34
ATOM     34  C   UNL d   1       2.985   0.307   1.381  0.00  0.00     0.026 C 
BRANCH  34  35
ATOM     35  C   UNL d   1       2.439  -0.064   0.003  0.00  0.00    -0.002 C 
ATOM     36  C   UNL d   1       0.920  -0.065  -0.010  0.00  0.00     0.005 C 
ENDBRANCH  34  35
ENDBRANCH  33  34
ENDBRANCH  32  33
ENDBRANCH  29  32
ENDBRANCH  24  26
ENDBRANCH  23  24
ENDBRANCH   1  23
TORSDOF 12
