REMARK  7 active torsions:
REMARK  status: ('A' for Active; 'I' for Inactive)
REMARK    1  A    between atoms: C_2  and  C_3 
REMARK    2  A    between atoms: C_3  and  C_4 
REMARK    3  A    between atoms: C_4  and  N_5 
REMARK       I    between atoms: N_5  and  C_6 
REMARK       I    between atoms: C_6  and  N_8 
REMARK    4  A    between atoms: N_8  and  N_9 
REMARK       I    between atoms: N_9  and  C_10 
REMARK    5  A    between atoms: C_10  and  C_12 
REMARK    6  A    between atoms: C_12  and  N_13 
REMARK    7  A    between atoms: N_13  and  C_15 
ROOT
ATOM      1  N   UNL d   1       8.399   0.861  -4.542  0.00  0.00    -0.265 N 
ATOM      2  C   UNL d   1       8.718   1.092  -5.872  0.00  0.00     0.254 C 
ATOM      3  O   UNL d   1       7.761   1.219  -6.643  0.00  0.00    -0.270 OA
ATOM      4  H   UNL d   1       9.049   0.734  -3.769  0.00  0.00     0.190 HD
ENDROOT
BRANCH   1   5
ATOM      5  N   UNL d   1       6.999   0.806  -4.230  0.00  0.00    -0.249 N 
ATOM      6  C   UNL d   1       6.583   0.589  -2.939  0.00  0.00     0.334 C 
ATOM      7  N   UNL d   1       5.214   0.559  -2.768  0.00  0.00    -0.342 N 
ATOM      8  O   UNL d   1       7.384   0.432  -2.017  0.00  0.00    -0.246 OA
ATOM      9  H   UNL d   1       4.600   0.694  -3.559  0.00  0.00     0.164 HD
ATOM     10  H   UNL d   1       6.374   0.943  -5.023  0.00  0.00     0.192 HD
BRANCH   7  11
ATOM     11  C   UNL d   1       4.642   0.336  -1.445  0.00  0.00     0.124 C 
BRANCH  11  12
ATOM     12  C   UNL d   1       3.110   0.330  -1.414  0.00  0.00     0.019 C 
BRANCH  12  13
ATOM     13  C   UNL d   1       2.570   0.090   0.004  0.00  0.00    -0.003 C 
ATOM     14  C   UNL d   1       1.048   0.086   0.031  0.00  0.00     0.005 C 
ENDBRANCH  12  13
ENDBRANCH  11  12
ENDBRANCH   7  11
ENDBRANCH   1   5
BRANCH   2  15
ATOM     15  C   UNL d   1      10.239   1.148  -6.266  0.00  0.00     0.227 C 
BRANCH  15  16
ATOM     16  N   UNL d   1      10.578   1.499  -7.679  0.00  0.00    -0.376 N 
ATOM     17  C   UNL d   1       9.579   1.593  -8.743  0.00  0.00     0.150 C 
BRANCH  16  18
ATOM     18  C   UNL d   1      11.901   1.503  -8.155  0.00  0.00     0.030 A 
ATOM     19  C   UNL d   1      12.300   2.437  -9.135  0.00  0.00     0.029 A 
ATOM     20  C   UNL d   1      13.557   2.397  -9.751  0.00  0.00     0.002 A 
ATOM     21  C   UNL d   1      14.492   1.456  -9.348  0.00  0.00     0.000 A 
ATOM     22  C   UNL d   1      14.147   0.540  -8.357  0.00  0.00     0.002 A 
ATOM     23  C   UNL d   1      12.867   0.565  -7.768  0.00  0.00     0.029 A 
ENDBRANCH  16  18
ENDBRANCH  15  16
ENDBRANCH   2  15
TORSDOF 7
