@<TRIPOS>MOLECULE
*****
 66 70 0 0 0
SMALL
GASTEIGER

@<TRIPOS>ATOM
      1 O           6.1991   -7.8452   -4.0887 O.2     1  UNL1       -0.2749
      2 C           6.5312   -8.5651   -3.1487 C.2     1  UNL1        0.2231
      3 C           6.4021  -10.0977   -3.1410 C.3     1  UNL1        0.0734
      4 S           5.7185  -10.7292   -4.7233 S.3     1  UNL1       -0.1085
      5 C           5.5754  -12.5296   -4.4769 C.3     1  UNL1        0.1563
      6 N           4.2025  -12.9526   -4.6695 N.pl3   1  UNL1       -0.3156
      7 C           3.3375  -12.9415   -3.5868 C.ar    1  UNL1        0.0414
      8 C           1.9495  -12.9208   -3.7327 C.ar    1  UNL1       -0.0400
      9 C           1.1086  -12.9626   -2.6061 C.ar    1  UNL1       -0.0600
     10 C           1.6393  -13.0507   -1.3210 C.ar    1  UNL1       -0.0609
     11 C           3.0119  -13.0491   -1.1598 C.ar    1  UNL1       -0.0478
     12 C           3.8377  -12.9698   -2.2852 C.ar    1  UNL1        0.0593
     13 C           5.2852  -12.9285   -2.0818 C.2     1  UNL1        0.2669
     14 O           5.6818  -12.7161   -0.9343 O.2     1  UNL1       -0.2683
     15 N           6.0736  -13.0695   -3.2198 N.am    1  UNL1       -0.1859
     16 N           7.4997  -13.3102   -3.1172 N.am    1  UNL1       -0.2292
     17 C           7.9967  -13.9996   -2.0152 C.2     1  UNL1        0.2296
     18 O           7.3654  -14.3775   -1.0349 O.2     1  UNL1       -0.2743
     19 C           9.4568  -14.3528   -2.0676 C.3     1  UNL1        0.0293
     20 C           9.8433  -14.8500   -0.6595 C.3     1  UNL1       -0.0165
     21 C          11.2487  -15.2998   -0.5301 C.2     1  UNL1        0.0081
     22 C          11.8920  -15.5511    0.6127 C.ar    1  UNL1        0.0509
     23 C          11.5297  -15.5034    1.9896 C.ar    1  UNL1       -0.0482
     24 C          12.4604  -15.8271    2.9011 C.ar    1  UNL1       -0.0608
     25 C          13.8084  -16.2182    2.5101 C.ar    1  UNL1       -0.0555
     26 C          14.2221  -16.2933    1.2302 C.ar    1  UNL1        0.0098
     27 C          13.2419  -15.9567    0.1866 C.ar    1  UNL1        0.2086
     28 N          13.3727  -15.9521   -1.0850 N.2     1  UNL1       -0.2369
     29 C          12.1150  -15.5432   -1.7212 C.3     1  UNL1        0.1660
     30 N           7.0639   -7.9653   -2.0338 N.am    1  UNL1       -0.3122
     31 C           7.5543   -8.6216   -0.8352 C.3     1  UNL1        0.0379
     32 C           8.2110   -7.6613    0.1737 C.3     1  UNL1        0.0742
     33 C           8.8475   -8.4252    1.3279 C.3     1  UNL1       -0.0231
     34 C          10.2722   -8.6172    0.8672 C.3     1  UNL1       -0.0271
     35 C          10.5359   -7.3632    0.0658 C.3     1  UNL1        0.0482
     36 O           9.2777   -6.9362   -0.4700 O.3     1  UNL1       -0.3750
     37 H           5.7477  -10.3646   -2.3096 H       1  UNL1        0.0472
     38 H           7.4020  -10.5180   -3.0032 H       1  UNL1        0.0472
     39 H           6.1570  -12.9756   -5.2924 H       1  UNL1        0.0847
     40 H           3.8301  -12.9650   -5.6096 H       1  UNL1        0.1487
     41 H           1.4954  -12.8528   -4.7177 H       1  UNL1        0.0636
     42 H           0.0291  -12.9313   -2.7297 H       1  UNL1        0.0618
     43 H           0.9983  -13.1145   -0.4464 H       1  UNL1        0.0618
     44 H           3.4498  -13.1168   -0.1662 H       1  UNL1        0.0626
     45 H           7.9980  -13.3726   -4.0018 H       1  UNL1        0.1731
     46 H          10.0621  -13.4880   -2.3567 H       1  UNL1        0.0362
     47 H           9.5832  -15.1548   -2.8037 H       1  UNL1        0.0362
     48 H           9.2009  -15.6944   -0.3692 H       1  UNL1        0.0317
     49 H           9.6575  -14.0479    0.0700 H       1  UNL1        0.0317
     50 H          10.5231  -15.2175    2.2824 H       1  UNL1        0.0626
     51 H          12.2205  -15.8041    3.9628 H       1  UNL1        0.0618
     52 H          14.4896  -16.4574    3.3251 H       1  UNL1        0.0620
     53 H          15.2325  -16.5885    0.9768 H       1  UNL1        0.0683
     54 H          14.2348  -16.1931   -1.5667 H       1  UNL1        0.4459
     55 H          11.7406  -16.3589   -2.3456 H       1  UNL1        0.1077
     56 H          12.2851  -14.6301   -2.2971 H       1  UNL1        0.1077
     57 H           7.1612   -6.9555   -2.1056 H       1  UNL1        0.1488
     58 H           8.2729   -9.3795   -1.1613 H       1  UNL1        0.0487
     59 H           6.7044   -9.1288   -0.3677 H       1  UNL1        0.0487
     60 H           7.4717   -6.9369    0.5342 H       1  UNL1        0.0611
     61 H           8.3433   -9.3694    1.5552 H       1  UNL1        0.0291
     62 H           8.8344   -7.8117    2.2362 H       1  UNL1        0.0291
     63 H          10.3392   -9.4951    0.2144 H       1  UNL1        0.0288
     64 H          10.9825   -8.7553    1.6871 H       1  UNL1        0.0288
     65 H          11.2364   -7.5379   -0.7562 H       1  UNL1        0.0560
     66 H          10.9357   -6.5612    0.6957 H       1  UNL1        0.0560
@<TRIPOS>UNITY_ATOM_ATTR
28 1
charge 1
@<TRIPOS>BOND
     1     1     2    2
     2     2     3    1
     3     3     4    1
     4     5     6    1
     5     6     7    1
     6     7     8   ar
     7     8     9   ar
     8     9    10   ar
     9    10    11   ar
    10    11    12   ar
    11     7    12   ar
    12    12    13    1
    13    13    14    2
    14    13    15   am
    15     5    15    1
    16    15    16    1
    17    16    17   am
    18    17    18    2
    19    17    19    1
    20    19    20    1
    21    20    21    1
    22    21    22    2
    23    22    23   ar
    24    23    24   ar
    25    24    25   ar
    26    25    26   ar
    27    26    27   ar
    28    22    27   ar
    29    27    28    2
    30    28    29    1
    31    21    29    1
    32     2    30   am
    33    30    31    1
    34    32    33    1
    35    33    34    1
    36    34    35    1
    37    35    36    1
    38    32    36    1
    39     5     4    1
    40    32    31    1
    41     3    37    1
    42     3    38    1
    43     5    39    1
    44     6    40    1
    45     8    41    1
    46     9    42    1
    47    10    43    1
    48    11    44    1
    49    16    45    1
    50    19    46    1
    51    19    47    1
    52    20    48    1
    53    20    49    1
    54    23    50    1
    55    24    51    1
    56    25    52    1
    57    26    53    1
    58    28    54    1
    59    29    55    1
    60    29    56    1
    61    30    57    1
    62    31    58    1
    63    31    59    1
    64    32    60    1
    65    33    61    1
    66    33    62    1
    67    34    63    1
    68    34    64    1
    69    35    65    1
    70    35    66    1
