REMARK  7 active torsions:
REMARK  status: ('A' for Active; 'I' for Inactive)
REMARK    1  A    between atoms: C_2  and  C_3 
REMARK       I    between atoms: C_2  and  N_15 
REMARK    2  A    between atoms: C_3  and  O_4 
REMARK    3  A    between atoms: O_4  and  C_5 
REMARK    4  A    between atoms: N_15  and  N_16 
REMARK    5  A    between atoms: N_16  and  S_17 
REMARK    6  A    between atoms: S_17  and  C_20 
REMARK    7  A    between atoms: C_25  and  N_26 
ROOT
ATOM      1  O   UNL d   1       1.067  -0.002  -0.022  0.00  0.00    -0.270 OA
ATOM      2  C   UNL d   1       2.295  -0.097  -0.030  0.00  0.00     0.256 C 
ATOM      3  N   UNL d   1       3.035   0.769   0.733  0.00  0.00    -0.276 N 
ATOM      4  H   UNL d   1       2.515   1.489   1.242  0.00  0.00     0.184 HD
ENDROOT
BRANCH   3   5
ATOM      5  N   UNL d   1       4.530   0.883   0.758  0.00  0.00    -0.123 NA
ATOM      6  H   UNL d   1       4.921   0.933  -0.189  0.00  0.00     0.166 HD
BRANCH   5   7
ATOM      7  S   UNL d   1       4.990   2.296   1.643  0.00  0.00     0.261 S 
ATOM      8  O   UNL d   1       4.399   3.303   0.789  0.00  0.00    -0.204 OA
ATOM      9  O   UNL d   1       4.596   2.081   3.015  0.00  0.00    -0.204 OA
BRANCH   7  10
ATOM     10  C   UNL d   1       6.762   2.378   1.613  0.00  0.00     0.109 A 
ATOM     11  C   UNL d   1       7.483   1.161   1.684  0.00  0.00     0.027 A 
ATOM     12  C   UNL d   1       8.874   1.156   1.874  0.00  0.00     0.002 A 
ATOM     13  C   UNL d   1       9.577   2.352   1.924  0.00  0.00     0.003 A 
ATOM     14  C   UNL d   1       8.884   3.556   1.834  0.00  0.00     0.038 A 
ATOM     15  C   UNL d   1       7.476   3.590   1.690  0.00  0.00     0.125 A 
BRANCH  15  16
ATOM     16  N   UNL d   1       6.883   4.944   1.674  0.00  0.00    -0.114 N 
ATOM     17  O   UNL d   1       7.667   5.899   1.580  0.00  0.00    -0.532 OA
ATOM     18  O   UNL d   1       5.670   5.086   1.792  0.00  0.00    -0.532 OA
ENDBRANCH  15  16
ENDBRANCH   7  10
ENDBRANCH   5   7
ENDBRANCH   3   5
BRANCH   2  19
ATOM     19  C   UNL d   1       3.057  -1.163  -0.805  0.00  0.00     0.279 C 
BRANCH  19  20
ATOM     20  O   UNL d   1       2.140  -2.003  -1.506  0.00  0.00    -0.341 OA
BRANCH  20  21
ATOM     21  C   UNL d   1       2.662  -3.106  -2.138  0.00  0.00     0.080 A 
ATOM     22  C   UNL d   1       3.709  -3.851  -1.587  0.00  0.00     0.037 A 
ATOM     23  C   UNL d   1       4.177  -4.993  -2.230  0.00  0.00     0.004 A 
ATOM     24  C   UNL d   1       3.591  -5.414  -3.420  0.00  0.00     0.012 A 
ATOM     25  C   UNL d   1       2.513  -4.714  -3.974  0.00  0.00    -0.023 A 
ATOM     26  C   UNL d   1       1.902  -5.183  -5.150  0.00  0.00     0.012 A 
ATOM     27  C   UNL d   1       2.034  -3.540  -3.338  0.00  0.00     0.007 A 
ATOM     28  C   UNL d   1       0.827  -4.504  -5.718  0.00  0.00     0.001 A 
ATOM     29  C   UNL d   1       0.351  -3.345  -5.116  0.00  0.00     0.001 A 
ATOM     30  C   UNL d   1       0.946  -2.868  -3.942  0.00  0.00     0.015 A 
ENDBRANCH  20  21
ENDBRANCH  19  20
ENDBRANCH   2  19
TORSDOF 7
