@<TRIPOS>MOLECULE
*****
 66 68 0 0 0
SMALL
GASTEIGER

@<TRIPOS>ATOM
      1 C          -4.3417   -2.2205   -6.6562 C.3     1  UNL1       -0.0395
      2 C          -4.3614   -1.6321   -5.2882 C.ar    1  UNL1       -0.0474
      3 C          -4.3911   -2.4375   -4.1616 C.ar    1  UNL1       -0.0568
      4 C          -4.3627   -1.8632   -2.8911 C.ar    1  UNL1       -0.0400
      5 C          -4.2630   -0.4905   -2.6788 C.ar    1  UNL1        0.0380
      6 N          -4.4011    0.1345   -1.3704 N.am    1  UNL1       -0.2509
      7 C          -4.4388    1.5737   -1.1267 C.2     1  UNL1        0.2617
      8 O          -4.3229    1.9920    0.0297 O.2     1  UNL1       -0.2689
      9 C          -4.6803    2.5422   -2.2249 C.ar    1  UNL1        0.1156
     10 S          -3.6029    3.8596   -2.5093 S.2     1  UNL1        0.0190
     11 N          -4.2009    4.2968   -4.0186 N.ar    1  UNL1       -0.2031
     12 C          -5.2747    3.5424   -4.2922 C.ar    1  UNL1        0.1554
     13 C          -5.9529    3.5475   -5.6221 C.2     1  UNL1        0.2624
     14 N          -5.5782    4.4761   -6.5615 N.am    1  UNL1       -0.3240
     15 O          -6.7801    2.7059   -5.9488 O.2     1  UNL1       -0.2687
     16 C          -5.6201    2.5815   -3.2458 C.ar    1  UNL1        0.0765
     17 N          -6.6039    1.6525   -3.3952 N.pl3   1  UNL1       -0.3551
     18 C          -4.3343   -0.8062   -0.1584 C.3     1  UNL1        0.1323
     19 C          -2.8426   -1.3631   -0.0902 C.2     1  UNL1        0.2385
     20 O          -1.8854   -0.6017   -0.2718 O.2     1  UNL1       -0.2734
     21 N          -2.5897   -2.7102    0.1424 N.am    1  UNL1       -0.3135
     22 C          -1.2460   -3.2430    0.0962 C.3     1  UNL1        0.0119
     23 C          -1.2014   -4.7654    0.3048 C.3     1  UNL1       -0.0350
     24 C           0.2490   -5.2806    0.3426 C.3     1  UNL1       -0.0453
     25 C           1.0379   -4.6125    1.4708 C.3     1  UNL1       -0.0626
     26 C           0.2945   -6.7981    0.5262 C.3     1  UNL1       -0.0626
     27 C          -5.5410   -1.8012   -0.0971 C.ar    1  UNL1       -0.0177
     28 C          -5.4063   -3.2084   -0.1158 C.ar    1  UNL1       -0.0536
     29 C          -6.4687   -4.0989   -0.1540 C.ar    1  UNL1       -0.0261
     30 C          -7.7409   -3.5943   -0.2239 C.ar    1  UNL1        0.1234
     31 F          -8.7652   -4.4467   -0.3386 F       1  UNL1       -0.2055
     32 C          -7.9498   -2.2182   -0.2346 C.ar    1  UNL1       -0.0261
     33 C          -6.8633   -1.3224   -0.1548 C.ar    1  UNL1       -0.0536
     34 C          -4.0324    0.2345   -3.8354 C.ar    1  UNL1       -0.0371
     35 C          -4.2418   -0.2630   -5.1210 C.ar    1  UNL1       -0.0458
     36 C          -4.3070    0.6964   -6.2692 C.3     1  UNL1       -0.0394
     37 H          -4.3041   -3.3105   -6.6139 H       1  UNL1        0.0278
     38 H          -3.4382   -1.8731   -7.1689 H       1  UNL1        0.0278
     39 H          -5.2274   -1.9090   -7.2146 H       1  UNL1        0.0278
     40 H          -4.4333   -3.5197   -4.2443 H       1  UNL1        0.0621
     41 H          -4.3882   -2.5800   -2.0982 H       1  UNL1        0.0636
     42 H          -4.8652    5.1685   -6.3974 H       1  UNL1        0.1453
     43 H          -6.0556    4.4328   -7.4536 H       1  UNL1        0.1453
     44 H          -6.8661    1.4571   -4.3718 H       1  UNL1        0.1424
     45 H          -6.5018    0.7640   -2.9095 H       1  UNL1        0.1424
     46 H          -4.4283   -0.2056    0.7597 H       1  UNL1        0.0651
     47 H          -3.1864   -3.2062    0.7850 H       1  UNL1        0.1487
     48 H          -0.7142   -2.7227    0.8931 H       1  UNL1        0.0462
     49 H          -0.7886   -2.9789   -0.8639 H       1  UNL1        0.0462
     50 H          -1.7566   -5.2745   -0.4957 H       1  UNL1        0.0283
     51 H          -1.7115   -5.0341    1.2400 H       1  UNL1        0.0283
     52 H           0.7279   -5.0394   -0.6151 H       1  UNL1        0.0296
     53 H           0.5752   -4.8220    2.4415 H       1  UNL1        0.0232
     54 H           1.0854   -3.5275    1.3478 H       1  UNL1        0.0232
     55 H           2.0716   -4.9659    1.4913 H       1  UNL1        0.0232
     56 H          -0.1627   -7.0963    1.4759 H       1  UNL1        0.0232
     57 H           1.3319   -7.1519    0.5282 H       1  UNL1        0.0232
     58 H          -0.2326   -7.3127   -0.2833 H       1  UNL1        0.0232
     59 H          -4.4722   -3.7168   -0.2848 H       1  UNL1        0.0622
     60 H          -6.2702   -5.1646   -0.2093 H       1  UNL1        0.0646
     61 H          -8.9666   -1.8529   -0.3362 H       1  UNL1        0.0646
     62 H          -7.0689   -0.2529   -0.2029 H       1  UNL1        0.0622
     63 H          -3.6906    1.2509   -3.7994 H       1  UNL1        0.0639
     64 H          -4.2741    1.7230   -5.9122 H       1  UNL1        0.0278
     65 H          -5.2485    0.5773   -6.8191 H       1  UNL1        0.0278
     66 H          -3.4521    0.5758   -6.9306 H       1  UNL1        0.0278
@<TRIPOS>BOND
     1     1     2    1
     2     2     3   ar
     3     3     4   ar
     4     4     5   ar
     5     5     6    1
     6     6     7   am
     7     7     8    2
     8     7     9    1
     9     9    10   ar
    10    10    11   ar
    11    11    12   ar
    12    12    13    1
    13    13    14   am
    14    13    15    2
    15    12    16   ar
    16     9    16   ar
    17    16    17    1
    18    19    20    2
    19    19    21   am
    20    21    22    1
    21    22    23    1
    22    23    24    1
    23    24    25    1
    24    24    26    1
    25    18    27    1
    26    27    28   ar
    27    28    29   ar
    28    29    30   ar
    29    30    31    1
    30    30    32   ar
    31    32    33   ar
    32    27    33   ar
    33     5    34   ar
    34    34    35   ar
    35     2    35   ar
    36    35    36    1
    37    18    19    1
    38    18     6    1
    39     1    37    1
    40     1    38    1
    41     1    39    1
    42     3    40    1
    43     4    41    1
    44    14    42    1
    45    14    43    1
    46    17    44    1
    47    17    45    1
    48    18    46    1
    49    21    47    1
    50    22    48    1
    51    22    49    1
    52    23    50    1
    53    23    51    1
    54    24    52    1
    55    25    53    1
    56    25    54    1
    57    25    55    1
    58    26    56    1
    59    26    57    1
    60    26    58    1
    61    28    59    1
    62    29    60    1
    63    32    61    1
    64    33    62    1
    65    34    63    1
    66    36    64    1
    67    36    65    1
    68    36    66    1
