@<TRIPOS>MOLECULE
*****
 55 56 0 0 0
SMALL
GASTEIGER

@<TRIPOS>ATOM
      1 C           1.0640    0.0059   -0.0381 C.3     1  UNL1        0.0366
      2 O           2.4825    0.0512   -0.0226 O.3     1  UNL1       -0.3796
      3 C           2.9557    1.3114   -0.5008 C.3     1  UNL1        0.0813
      4 C           4.4744    1.3012   -0.4712 C.3     1  UNL1        0.1129
      5 O           4.9754    2.5159   -1.0226 O.3     1  UNL1       -0.4886
      6 C           6.3354    2.6001   -1.1634 C.ar    1  UNL1        0.1345
      7 C           6.8673    3.8493   -0.8165 C.ar    1  UNL1       -0.0181
      8 C           8.2121    4.1357   -1.0824 C.ar    1  UNL1       -0.0461
      9 C           9.0669    3.1708   -1.6622 C.ar    1  UNL1        0.0383
     10 C          10.4582    3.5707   -2.0341 C.2     1  UNL1        0.2496
     11 O          10.7018    4.7600   -1.8347 O.2     1  UNL1       -0.2698
     12 N          11.4295    2.6119   -2.4350 N.am    1  UNL1       -0.2636
     13 C          12.7961    2.8837   -2.7194 C.2     1  UNL1        0.1411
     14 S          13.4524    4.4303   -2.8459 S.2     1  UNL1       -0.0182
     15 N          13.5891    1.6994   -2.7853 N.am    1  UNL1       -0.2960
     16 C          15.0367    1.7365   -2.7635 C.ar    1  UNL1        0.0448
     17 C          15.7495    1.2803   -3.8966 C.ar    1  UNL1       -0.0398
     18 C          17.1547    1.3361   -3.9448 C.ar    1  UNL1       -0.0600
     19 C          17.8658    1.8852   -2.8841 C.ar    1  UNL1       -0.0609
     20 C          17.1774    2.3162   -1.7480 C.ar    1  UNL1       -0.0478
     21 C          15.7694    2.2252   -1.6528 C.ar    1  UNL1        0.0578
     22 C          15.1634    2.6618   -0.3430 C.2     1  UNL1        0.2459
     23 O          15.8426    3.3040    0.4690 O.2     1  UNL1       -0.2701
     24 N          13.8508    2.3249   -0.0787 N.am    1  UNL1       -0.3112
     25 C          13.0750    3.0281    0.9328 C.3     1  UNL1        0.0140
     26 C          11.5794    2.8393    0.7646 C.3     1  UNL1       -0.0141
     27 C          10.7319    3.4227    1.8722 C.3     1  UNL1        0.0456
     28 O           9.3621    3.1276    1.6249 O.3     1  UNL1       -0.3950
     29 C           8.5639    1.9057   -1.8995 C.ar    1  UNL1       -0.0321
     30 C           7.1988    1.6371   -1.7179 C.ar    1  UNL1        0.0602
     31 BR          6.6969   -0.0267   -2.4989 Br      1  UNL1       -0.0465
     32 H           0.7408   -0.9667    0.3409 H       1  UNL1        0.0524
     33 H           0.6910    0.1290   -1.0594 H       1  UNL1        0.0524
     34 H           0.6623    0.7901    0.6092 H       1  UNL1        0.0524
     35 H           2.5667    2.1261    0.1169 H       1  UNL1        0.0593
     36 H           2.6120    1.4629   -1.5323 H       1  UNL1        0.0593
     37 H           4.7426    0.4335   -1.0588 H       1  UNL1        0.0720
     38 H           4.8544    1.1475    0.5447 H       1  UNL1        0.0720
     39 H           6.2389    4.6184   -0.3629 H       1  UNL1        0.0655
     40 H           8.6018    5.1155   -0.7920 H       1  UNL1        0.0626
     41 H          11.1714    1.6377   -2.3820 H       1  UNL1        0.1568
     42 H          13.1992    0.8905   -3.2593 H       1  UNL1        0.1539
     43 H          15.2344    0.9511   -4.7965 H       1  UNL1        0.0636
     44 H          17.7007    0.9753   -4.8170 H       1  UNL1        0.0618
     45 H          18.9498    1.9849   -2.9369 H       1  UNL1        0.0618
     46 H          17.7530    2.7287   -0.9195 H       1  UNL1        0.0626
     47 H          13.3613    1.8106   -0.7959 H       1  UNL1        0.1490
     48 H          13.2971    4.0996    0.8417 H       1  UNL1        0.0463
     49 H          13.4034    2.6733    1.9075 H       1  UNL1        0.0463
     50 H          11.2795    1.8194    0.4898 H       1  UNL1        0.0302
     51 H          11.3326    3.4583   -0.0728 H       1  UNL1        0.0302
     52 H          10.8462    4.5123    1.9022 H       1  UNL1        0.0557
     53 H          10.9900    2.9929    2.8364 H       1  UNL1        0.0557
     54 H           9.0417    3.8152    1.0187 H       1  UNL1        0.2094
     55 H           9.1943    1.1208   -2.2925 H       1  UNL1        0.0637
@<TRIPOS>BOND
     1     1     2    1
     2     2     3    1
     3     3     4    1
     4     4     5    1
     5     5     6    1
     6     6     7   ar
     7     7     8   ar
     8     8     9   ar
     9     9    10    1
    10    10    11    2
    11    10    12   am
    12    12    13    1
    13    13    14    2
    14    13    15    1
    15    15    16    1
    16    16    17   ar
    17    17    18   ar
    18    18    19   ar
    19    19    20   ar
    20    20    21   ar
    21    16    21   ar
    22    21    22    1
    23    22    23    2
    24    22    24   am
    25    24    25    1
    26    25    26    1
    27    26    27    1
    28    27    28    1
    29     9    29   ar
    30    29    30   ar
    31     6    30   ar
    32    30    31    1
    33     1    32    1
    34     1    33    1
    35     1    34    1
    36     3    35    1
    37     3    36    1
    38     4    37    1
    39     4    38    1
    40     7    39    1
    41     8    40    1
    42    12    41    1
    43    15    42    1
    44    17    43    1
    45    18    44    1
    46    19    45    1
    47    20    46    1
    48    24    47    1
    49    25    48    1
    50    25    49    1
    51    26    50    1
    52    26    51    1
    53    27    52    1
    54    27    53    1
    55    28    54    1
    56    29    55    1
