@<TRIPOS>MOLECULE
*****
 32 33 0 0 0
SMALL
GASTEIGER

@<TRIPOS>ATOM
      1 O           0.9951   -0.0864   -0.1669 O.2     1  UNL1       -0.2522
      2 C           2.2182    0.0641   -0.0600 C.2     1  UNL1        0.3082
      3 N           2.8313    0.8374    0.8938 N.am    1  UNL1       -0.2692
      4 C           2.2226    1.4108    2.0219 C.ar    1  UNL1        0.0350
      5 C           2.7839    2.5558    2.5953 C.ar    1  UNL1       -0.0370
      6 C           2.2533    3.0810    3.7820 C.ar    1  UNL1       -0.0180
      7 C           1.1435    2.4835    4.3878 C.ar    1  UNL1        0.1270
      8 O           0.6738    3.0987    5.5168 O.3     1  UNL1       -0.4342
      9 C          -0.5436    2.5847    6.0411 C.3     1  UNL1        0.3893
     10 F          -0.3154    1.3563    6.5703 F       1  UNL1       -0.1663
     11 F          -0.9201    3.3827    7.0724 F       1  UNL1       -0.1663
     12 C           0.6033    1.3313    3.8176 C.ar    1  UNL1       -0.0180
     13 C           1.1309    0.8076    2.6368 C.ar    1  UNL1       -0.0370
     14 N           3.0192   -0.4450   -1.0511 N.am    1  UNL1       -0.2667
     15 C           4.4164   -0.6000   -1.0751 C.ar    1  UNL1        0.0702
     16 C           5.0931   -0.4840   -2.2937 C.ar    1  UNL1       -0.0376
     17 C           6.4841   -0.6440   -2.3365 C.ar    1  UNL1       -0.0598
     18 C           7.2020   -0.8969   -1.1654 C.ar    1  UNL1       -0.0589
     19 C           6.5283   -1.0431    0.0423 C.ar    1  UNL1       -0.0246
     20 C           5.1478   -0.9111    0.0752 C.ar    1  UNL1        0.1445
     21 F           4.5258   -1.1206    1.2434 F       1  UNL1       -0.2035
     22 H           3.8251    0.9864    0.8087 H       1  UNL1        0.1564
     23 H           3.6023    3.0791    2.1057 H       1  UNL1        0.0637
     24 H           2.7121    3.9590    4.2327 H       1  UNL1        0.0655
     25 H          -1.3598    2.5498    5.3092 H       1  UNL1        0.1520
     26 H          -0.2132    0.7823    4.2736 H       1  UNL1        0.0655
     27 H           0.7109   -0.1134    2.2432 H       1  UNL1        0.0637
     28 H           2.4927   -0.7968   -1.8420 H       1  UNL1        0.1565
     29 H           4.5669   -0.2095   -3.2060 H       1  UNL1        0.0637
     30 H           7.0148   -0.5651   -3.2834 H       1  UNL1        0.0618
     31 H           8.2850   -0.9855   -1.1924 H       1  UNL1        0.0618
     32 H           7.0572   -1.2715    0.9613 H       1  UNL1        0.0647
@<TRIPOS>BOND
     1     1     2    2
     2     2     3   am
     3     3     4    1
     4     4     5   ar
     5     5     6   ar
     6     6     7   ar
     7     7     8    1
     8     8     9    1
     9     9    10    1
    10     9    11    1
    11     7    12   ar
    12    12    13   ar
    13     4    13   ar
    14     2    14   am
    15    14    15    1
    16    15    16   ar
    17    16    17   ar
    18    17    18   ar
    19    18    19   ar
    20    19    20   ar
    21    15    20   ar
    22    20    21    1
    23     3    22    1
    24     5    23    1
    25     6    24    1
    26     9    25    1
    27    12    26    1
    28    13    27    1
    29    14    28    1
    30    16    29    1
    31    17    30    1
    32    18    31    1
    33    19    32    1
