@<TRIPOS>MOLECULE
*****
 50 53 0 0 0
SMALL
GASTEIGER

@<TRIPOS>ATOM
      1 C           1.0586   -0.1016   -0.0843 C.3     1  UNL1       -0.0466
      2 C           2.5779   -0.0661   -0.0770 C.3     1  UNL1        0.0214
      3 C           3.1024    1.1059   -0.9064 C.3     1  UNL1       -0.0038
      4 C           4.6387    1.1760   -0.7622 C.3     1  UNL1        0.1508
      5 C           5.2073    2.2160   -1.7199 C.3     1  UNL1        0.4118
      6 F           6.2557    1.8148   -2.4610 F       1  UNL1       -0.1684
      7 F           4.2689    2.6634   -2.5950 F       1  UNL1       -0.1684
      8 F           5.6102    3.3131   -1.0229 F       1  UNL1       -0.1684
      9 N           5.2223   -0.1556   -0.8945 N.ar    1  UNL1       -0.2383
     10 N           6.5466   -0.3631   -0.9530 N.ar    1  UNL1       -0.1767
     11 C           6.6462   -1.6902   -1.1097 C.ar    1  UNL1        0.0635
     12 C           5.4015   -2.3767   -1.0121 C.ar    1  UNL1        0.0971
     13 C           5.0865   -3.8142   -1.0518 C.2     1  UNL1        0.2650
     14 O           3.9311   -4.2394   -0.9201 O.2     1  UNL1       -0.2685
     15 N           6.1479   -4.6918   -1.2336 N.am    1  UNL1       -0.2310
     16 N           5.9646   -6.1322   -1.2620 N.am    1  UNL1       -0.2453
     17 C           7.0744   -6.9603   -1.4996 C.2     1  UNL1        0.1510
     18 S           8.5853   -6.2544   -1.7922 S.2     1  UNL1       -0.0171
     19 N           6.7886   -8.3435   -1.4990 N.am    1  UNL1       -0.2953
     20 C           7.7701   -9.3913   -1.6933 C.ar    1  UNL1        0.0404
     21 C           8.9697   -9.3257   -0.9698 C.ar    1  UNL1       -0.0399
     22 C          10.0169  -10.2147   -1.1965 C.ar    1  UNL1       -0.0594
     23 C           9.8669  -11.2394   -2.1186 C.ar    1  UNL1       -0.0539
     24 C           8.6521  -11.4146   -2.7900 C.ar    1  UNL1       -0.0161
     25 C           8.5252  -12.4984   -3.6767 C.ar    1  UNL1       -0.0540
     26 C           7.3434  -12.7098   -4.3773 C.ar    1  UNL1       -0.0612
     27 C           6.2816  -11.8304   -4.2047 C.ar    1  UNL1       -0.0611
     28 C           6.3956  -10.7376   -3.3310 C.ar    1  UNL1       -0.0523
     29 C           7.5722  -10.4967   -2.5838 C.ar    1  UNL1        0.0033
     30 C           4.5014   -1.3318   -0.8335 C.ar    1  UNL1        0.1301
     31 N           3.1546   -1.2761   -0.6580 N.pl3   1  UNL1       -0.3260
     32 H           0.6588    0.8322    0.3292 H       1  UNL1        0.0247
     33 H           0.6833   -0.9246    0.5323 H       1  UNL1        0.0247
     34 H           0.6598   -0.2229   -1.0959 H       1  UNL1        0.0247
     35 H           2.9091    0.0351    0.9656 H       1  UNL1        0.0496
     36 H           2.6313    2.0506   -0.6115 H       1  UNL1        0.0306
     37 H           2.8429    0.9301   -1.9618 H       1  UNL1        0.0306
     38 H           4.8616    1.4901    0.2686 H       1  UNL1        0.0636
     39 H           7.6370   -2.0957   -1.2687 H       1  UNL1        0.0856
     40 H           7.1105   -4.3824   -1.3536 H       1  UNL1        0.1731
     41 H           5.0044   -6.4533   -1.1495 H       1  UNL1        0.1718
     42 H           5.8239   -8.6255   -1.6187 H       1  UNL1        0.1539
     43 H           9.1102   -8.5648   -0.2080 H       1  UNL1        0.0636
     44 H          10.9523  -10.0945   -0.6568 H       1  UNL1        0.0618
     45 H          10.7097  -11.9052   -2.2991 H       1  UNL1        0.0624
     46 H           9.3512  -13.1933   -3.8287 H       1  UNL1        0.0624
     47 H           7.2572  -13.5539   -5.0580 H       1  UNL1        0.0618
     48 H           5.3594  -11.9905   -4.7576 H       1  UNL1        0.0618
     49 H           5.5456  -10.0683   -3.2505 H       1  UNL1        0.0624
     50 H           2.6055   -2.1383   -0.6392 H       1  UNL1        0.1477
@<TRIPOS>BOND
     1     1     2    1
     2     2     3    1
     3     3     4    1
     4     5     6    1
     5     5     7    1
     6     5     8    1
     7     4     9    1
     8     9    10   ar
     9    10    11   ar
    10    11    12   ar
    11    12    13    1
    12    13    14    2
    13    13    15   am
    14    15    16    1
    15    16    17    1
    16    17    18    2
    17    17    19    1
    18    19    20    1
    19    20    21   ar
    20    21    22   ar
    21    22    23   ar
    22    23    24   ar
    23    24    25   ar
    24    25    26   ar
    25    26    27   ar
    26    27    28   ar
    27    28    29   ar
    28    20    29   ar
    29    24    29   ar
    30    12    30   ar
    31     9    30   ar
    32    30    31    1
    33     2    31    1
    34     4     5    1
    35     1    32    1
    36     1    33    1
    37     1    34    1
    38     2    35    1
    39     3    36    1
    40     3    37    1
    41     4    38    1
    42    11    39    1
    43    15    40    1
    44    16    41    1
    45    19    42    1
    46    21    43    1
    47    22    44    1
    48    23    45    1
    49    25    46    1
    50    26    47    1
    51    27    48    1
    52    28    49    1
    53    31    50    1
