@<TRIPOS>MOLECULE
*****
 46 46 0 0 0
SMALL
GASTEIGER

@<TRIPOS>ATOM
      1 C           1.0500   -0.0721   -0.0669 C.3     1  UNL1       -0.0652
      2 C           2.5745   -0.1005   -0.0668 C.3     1  UNL1       -0.0545
      3 C           3.1173   -1.5405   -0.0621 C.3     1  UNL1       -0.0376
      4 C           4.6544   -1.5859   -0.0620 C.3     1  UNL1        0.0131
      5 N           5.2216   -2.9412   -0.0568 N.am    1  UNL1       -0.2982
      6 C           6.5889   -3.1530   -0.0564 C.2     1  UNL1        0.3160
      7 O           7.4104   -2.2331   -0.0594 O.2     1  UNL1       -0.2513
      8 N           6.9810   -4.4836   -0.0500 N.am    1  UNL1       -0.2181
      9 N           8.3851   -4.8174   -0.0543 N.am    1  UNL1       -0.2304
     10 C           8.7767   -6.1575   -0.0623 C.2     1  UNL1        0.2667
     11 O           7.9346   -7.0591   -0.0500 O.2     1  UNL1       -0.2705
     12 C          10.3159   -6.4363   -0.0721 C.3     1  UNL1        0.1666
     13 O          10.5945   -7.8418   -0.1891 O.3     1  UNL1       -0.4827
     14 C          11.8877   -8.2812   -0.0656 C.ar    1  UNL1        0.1212
     15 C          12.2313   -9.4152   -0.8137 C.ar    1  UNL1       -0.0193
     16 C          13.4925  -10.0179   -0.6789 C.ar    1  UNL1       -0.0478
     17 C          14.4575   -9.4567    0.1647 C.ar    1  UNL1        0.0176
     18 C          15.8383  -10.0370    0.1707 C.2     1  UNL1        0.1629
     19 O          16.0818  -11.0108   -0.5430 O.2     1  UNL1       -0.2921
     20 C          16.9106   -9.3740    1.0217 C.3     1  UNL1        0.0076
     21 C          18.2595  -10.0595    0.8618 C.3     1  UNL1       -0.0582
     22 C          14.1079   -8.3403    0.9327 C.ar    1  UNL1       -0.0478
     23 C          12.8290   -7.7622    0.8218 C.ar    1  UNL1       -0.0193
     24 H           0.6819    0.9600   -0.0702 H       1  UNL1        0.0230
     25 H           0.6485   -0.5690    0.8221 H       1  UNL1        0.0230
     26 H           0.6485   -0.5747   -0.9526 H       1  UNL1        0.0230
     27 H           2.9376    0.4436    0.8135 H       1  UNL1        0.0263
     28 H           2.9376    0.4379   -0.9505 H       1  UNL1        0.0263
     29 H           2.7303   -2.0704   -0.9409 H       1  UNL1        0.0280
     30 H           2.7303   -2.0647    0.8200 H       1  UNL1        0.0280
     31 H           5.0377   -1.0583    0.8194 H       1  UNL1        0.0462
     32 H           5.0378   -1.0645   -0.9469 H       1  UNL1        0.0462
     33 H           4.5910   -3.7299   -0.0561 H       1  UNL1        0.1503
     34 H           6.3359   -5.2691   -0.0522 H       1  UNL1        0.1744
     35 H           9.0235   -4.0236   -0.0620 H       1  UNL1        0.1729
     36 H          10.7317   -6.0228    0.8523 H       1  UNL1        0.0795
     37 H          10.7596   -5.9334   -0.9385 H       1  UNL1        0.0795
     38 H          11.5199   -9.8386   -1.5202 H       1  UNL1        0.0654
     39 H          13.7183  -10.9251   -1.2400 H       1  UNL1        0.0626
     40 H          16.6114   -9.4198    2.0739 H       1  UNL1        0.0342
     41 H          17.0119   -8.3261    0.7179 H       1  UNL1        0.0342
     42 H          18.1968  -11.1142    1.1494 H       1  UNL1        0.0234
     43 H          19.0162   -9.5775    1.4882 H       1  UNL1        0.0234
     44 H          18.5988  -10.0159   -0.1788 H       1  UNL1        0.0234
     45 H          14.8093   -7.9025    1.6372 H       1  UNL1        0.0626
     46 H          12.5941   -6.9238    1.4669 H       1  UNL1        0.0654
@<TRIPOS>BOND
     1     1     2    1
     2     2     3    1
     3     3     4    1
     4     4     5    1
     5     5     6   am
     6     6     7    2
     7     6     8   am
     8     8     9    1
     9     9    10   am
    10    10    11    2
    11    10    12    1
    12    12    13    1
    13    13    14    1
    14    14    15   ar
    15    15    16   ar
    16    16    17   ar
    17    17    18    1
    18    18    19    2
    19    18    20    1
    20    20    21    1
    21    17    22   ar
    22    22    23   ar
    23    14    23   ar
    24     1    24    1
    25     1    25    1
    26     1    26    1
    27     2    27    1
    28     2    28    1
    29     3    29    1
    30     3    30    1
    31     4    31    1
    32     4    32    1
    33     5    33    1
    34     8    34    1
    35     9    35    1
    36    12    36    1
    37    12    37    1
    38    15    38    1
    39    16    39    1
    40    20    40    1
    41    20    41    1
    42    21    42    1
    43    21    43    1
    44    21    44    1
    45    22    45    1
    46    23    46    1
