@<TRIPOS>MOLECULE
*****
 49 49 0 0 0
SMALL
GASTEIGER

@<TRIPOS>ATOM
      1 C           1.1910    0.6716    0.1169 C.3     1  UNL1        0.0790
      2 O           2.5375    0.2059    0.0249 O.3     1  UNL1       -0.4913
      3 C           3.0668   -0.7841    0.8270 C.ar    1  UNL1        0.1652
      4 C           4.2968   -0.4253    1.4095 C.ar    1  UNL1       -0.0153
      5 C           5.1625   -1.3789    1.9976 C.ar    1  UNL1       -0.0423
      6 C           4.8077   -2.7365    2.0904 C.ar    1  UNL1        0.0836
      7 C           5.7557   -3.6810    2.8452 C.2     1  UNL1        0.2638
      8 O           6.7996   -3.2656    3.3195 O.2     1  UNL1       -0.2685
      9 N           5.3529   -5.0075    2.9924 N.am    1  UNL1       -0.2310
     10 N           6.1111   -5.9781    3.7178 N.am    1  UNL1       -0.2456
     11 C           5.6374   -7.2866    3.8238 C.2     1  UNL1        0.1468
     12 S           4.1884   -7.7802    3.1155 S.2     1  UNL1       -0.0174
     13 N           6.4532   -8.1416    4.5632 N.am    1  UNL1       -0.3254
     14 C           6.1458   -9.5666    4.7551 C.3     1  UNL1        0.0109
     15 C           7.1720  -10.3743    5.5559 C.3     1  UNL1       -0.0351
     16 C           6.7568  -11.8608    5.7044 C.3     1  UNL1       -0.0453
     17 C           6.6080  -12.5559    4.3476 C.3     1  UNL1       -0.0626
     18 C           7.7838  -12.6237    6.5448 C.3     1  UNL1       -0.0626
     19 C           3.5806   -3.1199    1.5084 C.ar    1  UNL1        0.1773
     20 O           3.3196   -4.4821    1.5420 O.3     1  UNL1       -0.4906
     21 C           2.1432   -5.0027    0.9268 C.3     1  UNL1        0.0790
     22 C           2.7089   -2.1453    0.8922 C.ar    1  UNL1        0.2043
     23 O           1.5984   -2.7355    0.3832 O.3     1  UNL1       -0.4885
     24 C           0.5496   -2.0321   -0.1826 C.3     1  UNL1        0.0791
     25 H           1.1163    1.6603   -0.3432 H       1  UNL1        0.0660
     26 H           0.8043    0.6884    1.1383 H       1  UNL1        0.0660
     27 H           0.5059    0.1432   -0.5443 H       1  UNL1        0.0660
     28 H           4.6115    0.6192    1.3901 H       1  UNL1        0.0655
     29 H           6.1354   -1.0455    2.3611 H       1  UNL1        0.0627
     30 H           4.4772   -5.3349    2.5858 H       1  UNL1        0.1731
     31 H           6.9767   -5.6461    4.1330 H       1  UNL1        0.1718
     32 H           7.3298   -7.7971    4.9314 H       1  UNL1        0.1478
     33 H           6.0475   -9.9956    3.7538 H       1  UNL1        0.0462
     34 H           5.1720   -9.6380    5.2540 H       1  UNL1        0.0462
     35 H           7.2875   -9.9319    6.5533 H       1  UNL1        0.0283
     36 H           8.1529  -10.3164    5.0692 H       1  UNL1        0.0283
     37 H           5.7905  -11.9106    6.2245 H       1  UNL1        0.0296
     38 H           7.5488  -12.5181    3.7883 H       1  UNL1        0.0232
     39 H           5.8288  -12.0922    3.7369 H       1  UNL1        0.0232
     40 H           6.3254  -13.6066    4.4711 H       1  UNL1        0.0232
     41 H           8.7685  -12.6123    6.0654 H       1  UNL1        0.0232
     42 H           7.4851  -13.6709    6.6713 H       1  UNL1        0.0232
     43 H           7.8833  -12.1824    7.5413 H       1  UNL1        0.0232
     44 H           2.1286   -6.0875    1.0210 H       1  UNL1        0.0660
     45 H           2.1333   -4.7917   -0.1510 H       1  UNL1        0.0660
     46 H           1.2498   -4.6363    1.4477 H       1  UNL1        0.0660
     47 H          -0.2569   -2.6939   -0.4987 H       1  UNL1        0.0660
     48 H           0.9365   -1.5712   -1.0922 H       1  UNL1        0.0660
     49 H           0.1172   -1.4019    0.5971 H       1  UNL1        0.0660
@<TRIPOS>BOND
     1     1     2    1
     2     2     3    1
     3     3     4   ar
     4     4     5   ar
     5     5     6   ar
     6     6     7    1
     7     7     8    2
     8     7     9   am
     9     9    10    1
    10    10    11    1
    11    11    12    2
    12    11    13    1
    13    13    14    1
    14    14    15    1
    15    15    16    1
    16    16    17    1
    17    16    18    1
    18     6    19   ar
    19    19    20    1
    20    20    21    1
    21    19    22   ar
    22     3    22   ar
    23    22    23    1
    24    23    24    1
    25     1    25    1
    26     1    26    1
    27     1    27    1
    28     4    28    1
    29     5    29    1
    30     9    30    1
    31    10    31    1
    32    13    32    1
    33    14    33    1
    34    14    34    1
    35    15    35    1
    36    15    36    1
    37    16    37    1
    38    17    38    1
    39    17    39    1
    40    17    40    1
    41    18    41    1
    42    18    42    1
    43    18    43    1
    44    21    44    1
    45    21    45    1
    46    21    46    1
    47    24    47    1
    48    24    48    1
    49    24    49    1
