REMARK  7 active torsions:
REMARK  status: ('A' for Active; 'I' for Inactive)
REMARK    1  A    between atoms: O_2  and  C_3 
REMARK    2  A    between atoms: C_6  and  C_7 
REMARK    3  A    between atoms: C_8  and  O_9 
REMARK    4  A    between atoms: C_10  and  C_11 
REMARK       I    between atoms: N_21  and  C_22 
REMARK    5  A    between atoms: C_22  and  C_24 
REMARK    6  A    between atoms: C_24  and  N_25 
REMARK    7  A    between atoms: C_29  and  N_30 
ROOT
ATOM      1  C   UNL d   1       5.689  -2.699   4.013  0.00  0.00     0.181 C 
ATOM      2  C   UNL d   1       6.434  -3.927   3.381  0.00  0.00     0.198 C 
ATOM      3  C   UNL d   1       5.864  -5.215   3.974  0.00  0.00     0.080 C 
ATOM      4  N   UNL d   1       5.021  -4.866   4.997  0.00  0.00    -0.174 NA
ATOM      5  N   UNL d   1       5.027  -3.258   5.175  0.00  0.00    -0.225 N 
ATOM      6  C   UNL d   1       4.486  -2.423   6.309  0.00  0.00     0.259 C 
ATOM      7  O   UNL d   1       3.728  -2.838   7.144  0.00  0.00    -0.270 OA
ENDROOT
BRANCH   1   8
ATOM      8  C   UNL d   1       4.736  -1.916   3.081  0.00  0.00    -0.030 A 
ATOM      9  C   UNL d   1       5.125  -0.682   2.518  0.00  0.00     0.012 A 
ATOM     10  C   UNL d   1       4.292   0.004   1.614  0.00  0.00     0.037 A 
ATOM     11  C   UNL d   1       3.088  -0.559   1.189  0.00  0.00     0.068 A 
ATOM     12  C   UNL d   1       2.697  -1.784   1.722  0.00  0.00     0.037 A 
ATOM     13  C   UNL d   1       3.500  -2.444   2.670  0.00  0.00     0.012 A 
BRANCH  11  14
ATOM     14  O   UNL d   1       2.446   0.104   0.180  0.00  0.00    -0.356 OA
ATOM     15  C   UNL d   1       1.026  -0.018   0.135  0.00  0.00     0.210 C 
ENDBRANCH  11  14
ENDBRANCH   1   8
BRANCH   6  16
ATOM     16  C   UNL d   1       5.012  -0.804   6.431  0.00  0.00     0.235 C 
BRANCH  16  17
ATOM     17  N   UNL d   1       4.677   0.068   7.702  0.00  0.00    -0.329 N 
ATOM     18  C   UNL d   1       4.236  -0.503   8.897  0.00  0.00     0.101 A 
ATOM     19  C   UNL d   1       4.061   0.397   9.931  0.00  0.00     0.070 A 
ATOM     20  S   UNL d   1       4.455   1.986   9.453  0.00  0.00    -0.065 SA
ATOM     21  C   UNL d   1       4.844   1.405   7.860  0.00  0.00     0.144 A 
BRANCH  21  22
ATOM     22  N   UNL d   1       5.268   2.294   6.985  0.00  0.00    -0.379 N 
ATOM     23  H   UNL d   1       5.323   3.252   7.324  0.00  0.00     0.158 HD
ATOM     24  H   UNL d   1       5.485   2.052   6.038  0.00  0.00     0.158 HD
ENDBRANCH  21  22
ENDBRANCH  16  17
ENDBRANCH   6  16
BRANCH   3  25
ATOM     25  C   UNL d   1       6.058  -6.720   3.121  0.00  0.00     0.070 C 
ATOM     26  C   UNL d   1       5.110  -6.561   2.118  0.00  0.00     0.100 C 
ATOM     27  N   UNL d   1       4.618  -7.848   2.102  0.00  0.00    -0.285 NA
ATOM     28  C   UNL d   1       5.601  -8.502   1.419  0.00  0.00     0.016 A 
ATOM     29  H   UNL d   1       4.221  -8.335   2.889  0.00  0.00     0.128 HD
ATOM     30  C   UNL d   1       5.379  -9.386   0.333  0.00  0.00     0.024 A 
ATOM     31  C   UNL d   1       6.769  -7.905   1.981  0.00  0.00    -0.019 A 
ATOM     32  C   UNL d   1       6.403  -9.854  -0.445  0.00  0.00     0.002 A 
ATOM     33  C   UNL d   1       7.656  -9.391  -0.086  0.00  0.00     0.001 A 
ATOM     34  C   UNL d   1       7.892  -8.457   1.114  0.00  0.00     0.010 A 
ENDBRANCH   3  25
BRANCH   2  35
ATOM     35  O   UNL d   1       6.413  -3.864   1.980  0.00  0.00    -0.387 OA
ATOM     36  H   UNL d   1       5.473  -3.872   1.705  0.00  0.00     0.210 HD
ENDBRANCH   2  35
TORSDOF 7
