@<TRIPOS>MOLECULE
*****
 57 61 0 0 0
SMALL
GASTEIGER

@<TRIPOS>ATOM
      1 C           2.4206    1.4645   -0.0425 C.3     1  UNL1        0.0119
      2 N           1.5571    0.3039   -0.0088 N.ar    1  UNL1       -0.3491
      3 C           1.9830   -0.9989   -0.0057 C.ar    1  UNL1        0.0133
      4 C           0.8677   -1.8138   -0.0265 C.ar    1  UNL1        0.0131
      5 C           0.9118   -3.2364    0.0118 C.2     1  UNL1        0.0590
      6 C           1.4690   -4.0256    0.9463 C.2     1  UNL1        0.0590
      7 C           2.0987   -3.6411    2.1622 C.ar    1  UNL1        0.0131
      8 C           3.4173   -3.8725    2.4768 C.ar    1  UNL1        0.0136
      9 N           3.6725   -3.3253    3.7115 N.ar    1  UNL1       -0.3460
     10 C           4.9614   -3.3171    4.3991 C.3     1  UNL1        0.0241
     11 C           6.0843   -4.0238    3.6311 C.3     1  UNL1       -0.0254
     12 C           7.4208   -3.9953    4.3685 C.3     1  UNL1        0.0066
     13 S           8.6730   -4.8565    3.3701 S.3     1  UNL1       -0.0406
     14 C          10.1460   -4.7893    4.2538 C.2     1  UNL1        0.2963
     15 N          10.2648   -4.2057    5.4190 N.pl3   1  UNL1       -0.3002
     16 N          11.1835   -5.3642    3.6954 N.2     1  UNL1       -0.2360
     17 C           2.5200   -2.7468    4.2142 C.ar    1  UNL1        0.0497
     18 C           2.2664   -2.0861    5.4292 C.ar    1  UNL1       -0.0376
     19 C           0.9827   -1.5743    5.6464 C.ar    1  UNL1       -0.0598
     20 C          -0.0153   -1.7129    4.6884 C.ar    1  UNL1       -0.0611
     21 C           0.2406   -2.3835    3.4911 C.ar    1  UNL1       -0.0520
     22 C           1.5233   -2.9147    3.2444 C.ar    1  UNL1        0.0077
     23 C           1.2791   -5.4313    0.5119 C.2     1  UNL1        0.2519
     24 O           1.6628   -6.4321    1.0862 O.2     1  UNL1       -0.2697
     25 N           0.6004   -5.3998   -0.6552 N.am    1  UNL1       -0.2483
     26 C           0.3276   -4.1277   -1.0200 C.2     1  UNL1        0.2519
     27 O          -0.2822   -3.7961   -2.0182 O.2     1  UNL1       -0.2697
     28 C          -0.2814   -0.9673   -0.0298 C.ar    1  UNL1        0.0077
     29 C          -1.6745   -1.1916   -0.0307 C.ar    1  UNL1       -0.0520
     30 C          -2.5530   -0.1018   -0.0205 C.ar    1  UNL1       -0.0611
     31 C          -2.0676    1.2015    0.0062 C.ar    1  UNL1       -0.0598
     32 C          -0.6947    1.4540    0.0232 C.ar    1  UNL1       -0.0376
     33 C           0.1792    0.3549    0.0000 C.ar    1  UNL1        0.0494
     34 H           3.4664    1.1478   -0.0339 H       1  UNL1        0.0456
     35 H           2.2149    2.0840    0.8348 H       1  UNL1        0.0456
     36 H           2.2120    2.0213   -0.9603 H       1  UNL1        0.0456
     37 H           3.0376   -1.2396    0.0110 H       1  UNL1        0.0815
     38 H           4.1829   -4.3734    1.9011 H       1  UNL1        0.0815
     39 H           4.8067   -3.7954    5.3739 H       1  UNL1        0.0492
     40 H           5.2234   -2.2650    4.5694 H       1  UNL1        0.0492
     41 H           6.1969   -3.5391    2.6520 H       1  UNL1        0.0290
     42 H           5.7829   -5.0647    3.4535 H       1  UNL1        0.0290
     43 H           7.3220   -4.4923    5.3379 H       1  UNL1        0.0382
     44 H           7.7345   -2.9595    4.5287 H       1  UNL1        0.0382
     45 H           9.4765   -3.7593    5.8639 H       1  UNL1        0.1483
     46 H          11.1464   -4.1834    5.9142 H       1  UNL1        0.1483
     47 H          11.0548   -5.8081    2.7917 H       1  UNL1        0.4453
     48 H          12.1023   -5.3927    4.1132 H       1  UNL1        0.4453
     49 H           3.0319   -1.9683    6.1886 H       1  UNL1        0.0638
     50 H           0.7581   -1.0574    6.5769 H       1  UNL1        0.0618
     51 H          -1.0054   -1.3004    4.8662 H       1  UNL1        0.0618
     52 H          -0.5497   -2.4848    2.7531 H       1  UNL1        0.0624
     53 H           0.3203   -6.2131   -1.1785 H       1  UNL1        0.1581
     54 H          -2.0709   -2.2022   -0.0538 H       1  UNL1        0.0624
     55 H          -3.6256   -0.2771   -0.0418 H       1  UNL1        0.0618
     56 H          -2.7648    2.0364    0.0069 H       1  UNL1        0.0618
     57 H          -0.3254    2.4745    0.0455 H       1  UNL1        0.0638
@<TRIPOS>UNITY_ATOM_ATTR
16 1
charge 1
@<TRIPOS>BOND
     1     1     2    1
     2     2     3   ar
     3     3     4   ar
     4     4     5    1
     5     5     6    2
     6     6     7    1
     7     7     8   ar
     8     8     9   ar
     9     9    10    1
    10    10    11    1
    11    11    12    1
    12    12    13    1
    13    13    14    1
    14    14    15    1
    15    14    16    2
    16     9    17   ar
    17    17    18   ar
    18    18    19   ar
    19    19    20   ar
    20    20    21   ar
    21    21    22   ar
    22     7    22   ar
    23    17    22   ar
    24     6    23    1
    25    23    24    2
    26    23    25   am
    27    25    26   am
    28     5    26    1
    29    26    27    2
    30     4    28   ar
    31    28    29   ar
    32    29    30   ar
    33    30    31   ar
    34    31    32   ar
    35    32    33   ar
    36    28    33   ar
    37     2    33   ar
    38     1    34    1
    39     1    35    1
    40     1    36    1
    41     3    37    1
    42     8    38    1
    43    10    39    1
    44    10    40    1
    45    11    41    1
    46    11    42    1
    47    12    43    1
    48    12    44    1
    49    15    45    1
    50    15    46    1
    51    16    47    1
    52    16    48    1
    53    18    49    1
    54    19    50    1
    55    20    51    1
    56    21    52    1
    57    25    53    1
    58    29    54    1
    59    30    55    1
    60    31    56    1
    61    32    57    1
