@<TRIPOS>MOLECULE
*****
 42 43 0 0 0
SMALL
GASTEIGER

@<TRIPOS>ATOM
      1 C           0.9801   -0.0204    0.0925 C.3     1  UNL1       -0.0652
      2 C           2.5002   -0.0311    0.1083 C.3     1  UNL1       -0.0545
      3 C           3.0314   -0.8236    1.3039 C.3     1  UNL1       -0.0376
      4 C           4.5558   -0.8367    1.3307 C.3     1  UNL1        0.0119
      5 N           5.0859   -1.5861    2.4569 N.am    1  UNL1       -0.3113
      6 C           6.4520   -1.6488    2.6628 C.2     1  UNL1        0.2441
      7 O           7.2655   -1.0873    1.9362 O.2     1  UNL1       -0.2702
      8 C           6.9467   -2.4752    3.7975 C.ar    1  UNL1        0.0367
      9 C           8.1363   -2.1185    4.4449 C.ar    1  UNL1       -0.0493
     10 C           8.7574   -3.0098    5.3379 C.ar    1  UNL1       -0.0564
     11 C           8.1627   -4.2448    5.6609 C.ar    1  UNL1       -0.0303
     12 C           8.8097   -5.1402    6.7106 C.3     1  UNL1        0.0372
     13 N           8.0996   -6.3811    6.9836 N.am    1  UNL1       -0.3059
     14 C           8.4753   -7.2551    7.9844 C.2     1  UNL1        0.2644
     15 O           9.4584   -7.0539    8.7004 O.2     1  UNL1       -0.2685
     16 C           7.6024   -8.4472    8.1106 C.ar    1  UNL1        0.1468
     17 C           7.0362   -9.2191    7.0521 C.ar    1  UNL1       -0.0120
     18 C           6.3524  -10.2446    7.6599 C.ar    1  UNL1        0.0231
     19 N           6.5060  -10.0476    8.9988 N.ar    1  UNL1       -0.2840
     20 N           7.2449   -8.9672    9.3011 N.ar    1  UNL1       -0.1692
     21 C           6.9608   -4.5689    5.0096 C.ar    1  UNL1       -0.0564
     22 C           6.3526   -3.6977    4.0982 C.ar    1  UNL1       -0.0493
     23 H           0.6097    0.5485   -0.7658 H       1  UNL1        0.0230
     24 H           0.5847    0.4405    1.0033 H       1  UNL1        0.0230
     25 H           0.5844   -1.0387    0.0232 H       1  UNL1        0.0230
     26 H           2.8678    1.0012    0.1481 H       1  UNL1        0.0263
     27 H           2.8678   -0.4697   -0.8270 H       1  UNL1        0.0263
     28 H           2.6526   -1.8522    1.2617 H       1  UNL1        0.0280
     29 H           2.6510   -0.3845    2.2344 H       1  UNL1        0.0280
     30 H           4.9462    0.1860    1.3874 H       1  UNL1        0.0462
     31 H           4.9494   -1.2893    0.4125 H       1  UNL1        0.0462
     32 H           4.4475   -1.9934    3.1267 H       1  UNL1        0.1490
     33 H           8.5947   -1.1523    4.2368 H       1  UNL1        0.0625
     34 H           9.7247   -2.7329    5.7584 H       1  UNL1        0.0621
     35 H           8.8797   -4.5795    7.6517 H       1  UNL1        0.0512
     36 H           9.8291   -5.4063    6.4046 H       1  UNL1        0.0512
     37 H           7.1968   -6.5458    6.5734 H       1  UNL1        0.1494
     38 H           7.1611   -9.0724    5.9893 H       1  UNL1        0.0656
     39 H           5.8013  -11.0894    7.2691 H       1  UNL1        0.0824
     40 H           6.1428  -10.6145    9.7599 H       1  UNL1        0.1882
     41 H           6.4712   -5.5232    5.1578 H       1  UNL1        0.0621
     42 H           5.4474   -4.0217    3.5947 H       1  UNL1        0.0625
@<TRIPOS>BOND
     1     1     2    1
     2     2     3    1
     3     3     4    1
     4     4     5    1
     5     5     6   am
     6     6     7    2
     7     6     8    1
     8     8     9   ar
     9     9    10   ar
    10    10    11   ar
    11    11    12    1
    12    12    13    1
    13    13    14   am
    14    14    15    2
    15    14    16    1
    16    16    17   ar
    17    17    18   ar
    18    18    19   ar
    19    19    20   ar
    20    16    20   ar
    21    11    21   ar
    22    21    22   ar
    23     8    22   ar
    24     1    23    1
    25     1    24    1
    26     1    25    1
    27     2    26    1
    28     2    27    1
    29     3    28    1
    30     3    29    1
    31     4    30    1
    32     4    31    1
    33     5    32    1
    34     9    33    1
    35    10    34    1
    36    12    35    1
    37    12    36    1
    38    13    37    1
    39    17    38    1
    40    18    39    1
    41    19    40    1
    42    21    41    1
    43    22    42    1
