REMARK  4 active torsions:
REMARK  status: ('A' for Active; 'I' for Inactive)
REMARK    1  A    between atoms: C_7  and  N_8 
REMARK       I    between atoms: N_8  and  C_9 
REMARK    2  A    between atoms: C_9  and  C_11 
REMARK    3  A    between atoms: C_11  and  N_13 
REMARK       I    between atoms: N_13  and  C_14 
REMARK    4  A    between atoms: C_14  and  C_16 
ROOT
ATOM      1  C   UNL d   1      -1.492   5.079   0.010  0.00  0.00     0.173 C 
ATOM      2  C   UNL d   1      -2.353   5.107   1.266  0.00  0.00     0.042 C 
ENDROOT
BRANCH   1   3
ATOM      3  C   UNL d   1      -0.624   3.796  -0.013  0.00  0.00     0.244 C 
ATOM      4  N   UNL d   1      -1.292   2.564  -0.011  0.00  0.00    -0.325 N 
ATOM      5  H   UNL d   1      -2.305   2.562  -0.011  0.00  0.00     0.169 HD
ATOM      6  O   UNL d   1       0.601   3.949  -0.035  0.00  0.00    -0.271 OA
BRANCH   4   7
ATOM      7  C   UNL d   1      -0.659   1.276  -0.005  0.00  0.00     0.041 A 
ATOM      8  C   UNL d   1      -1.403   0.073  -0.003  0.00  0.00    -0.035 A 
ATOM      9  C   UNL d   1      -0.715  -1.166  -0.001  0.00  0.00     0.009 A 
ATOM     10  C   UNL d   1      -2.906   0.026  -0.002  0.00  0.00     0.050 C 
ATOM     11  C   UNL d   1       0.679  -1.228   0.002  0.00  0.00     0.007 A 
ATOM     12  C   UNL d   1       1.415  -0.054   0.002  0.00  0.00    -0.060 A 
ATOM     13  C   UNL d   1       2.913  -0.040   0.005  0.00  0.00     0.048 C 
ATOM     14  C   UNL d   1       0.737   1.170  -0.000  0.00  0.00     0.037 A 
ENDBRANCH   4   7
ENDBRANCH   1   3
BRANCH   1  15
ATOM     15  N   UNL d   1      -0.573   6.245  -0.033  0.00  0.00    -0.344 N 
ATOM     16  C   UNL d   1      -1.006   7.551  -0.033  0.00  0.00     0.252 C 
ATOM     17  O   UNL d   1      -2.195   7.867  -0.027  0.00  0.00    -0.268 OA
ATOM     18  H   UNL d   1       0.420   6.021   0.011  0.00  0.00     0.163 HD
BRANCH  16  19
ATOM     19  C   UNL d   1       0.020   8.629   0.001  0.00  0.00     0.032 A 
ATOM     20  C   UNL d   1       1.132   8.610  -0.848  0.00  0.00     0.018 A 
ATOM     21  C   UNL d   1       2.039   9.679  -0.837  0.00  0.00     0.025 A 
ATOM     22  C   UNL d   1       1.840  10.761   0.024  0.00  0.00     0.034 A 
ATOM     23 CL   UNL d   1       2.975  12.056   0.049  0.00  0.00    -0.084 Cl
ATOM     24  C   UNL d   1       0.727  10.798   0.860  0.00  0.00     0.025 A 
ATOM     25  C   UNL d   1      -0.187   9.736   0.842  0.00  0.00     0.018 A 
ENDBRANCH  16  19
ENDBRANCH   1  15
TORSDOF 4
