@<TRIPOS>MOLECULE
*****
 44 45 0 0 0
SMALL
GASTEIGER

@<TRIPOS>ATOM
      1 C           1.1581    0.0988   -0.0234 C.3     1  UNL1        0.0820
      2 O           2.5930    0.0843   -0.0356 O.3     1  UNL1       -0.4645
      3 C           3.1506    1.3074   -0.2011 C.2     1  UNL1        0.3389
      4 O           2.5467    2.3661   -0.3393 O.2     1  UNL1       -0.2450
      5 C           4.6310    1.2262   -0.2157 C.ar    1  UNL1        0.0597
      6 C           5.3624    2.2689    0.3739 C.ar    1  UNL1       -0.0477
      7 C           6.7415    2.3276    0.2032 C.ar    1  UNL1       -0.0603
      8 C           7.3889    1.3105   -0.5054 C.ar    1  UNL1       -0.0496
      9 C           6.6708    0.2402   -1.0989 C.ar    1  UNL1        0.0378
     10 C           7.4605   -0.7540   -1.9100 C.2     1  UNL1        0.2496
     11 O           8.6724   -0.5483   -1.9384 O.2     1  UNL1       -0.2698
     12 N           6.8284   -1.8246   -2.5926 N.am    1  UNL1       -0.2627
     13 C           7.4658   -2.8079   -3.3866 C.2     1  UNL1        0.1533
     14 S           9.1254   -2.8971   -3.6835 S.2     1  UNL1       -0.0170
     15 N           6.6128   -3.7734   -3.9536 N.am    1  UNL1       -0.2454
     16 N           7.1913   -4.8295   -4.7775 N.am    1  UNL1       -0.2323
     17 C           6.3984   -5.8110   -5.3621 C.2     1  UNL1        0.2667
     18 O           5.1779   -5.8129   -5.1946 O.2     1  UNL1       -0.2705
     19 C           7.1551   -6.8826   -6.2186 C.3     1  UNL1        0.1666
     20 O           6.2153   -7.7983   -6.7979 O.3     1  UNL1       -0.4827
     21 C           6.6890   -8.8019   -7.6007 C.ar    1  UNL1        0.1213
     22 C           5.9395   -9.0618   -8.7554 C.ar    1  UNL1       -0.0189
     23 C           6.2467  -10.1448   -9.5877 C.ar    1  UNL1       -0.0443
     24 C           7.3477  -10.9421   -9.2949 C.ar    1  UNL1        0.0181
     25 BR          7.8712  -12.2979  -10.5060 Br      1  UNL1       -0.0503
     26 C           8.0875  -10.7132   -8.1346 C.ar    1  UNL1       -0.0443
     27 C           7.7494   -9.6496   -7.2789 C.ar    1  UNL1       -0.0189
     28 C           5.2829    0.2077   -0.9404 C.ar    1  UNL1       -0.0356
     29 H           0.8034   -0.9182    0.1689 H       1  UNL1        0.0661
     30 H           0.7707    0.4177   -0.9970 H       1  UNL1        0.0661
     31 H           0.7770    0.7489    0.7718 H       1  UNL1        0.0661
     32 H           4.8597    3.0466    0.9479 H       1  UNL1        0.0626
     33 H           7.3109    3.1721    0.5913 H       1  UNL1        0.0618
     34 H           8.4757    1.3726   -0.6022 H       1  UNL1        0.0625
     35 H           5.8265   -1.8927   -2.5150 H       1  UNL1        0.1569
     36 H           5.5997   -3.8232   -3.8483 H       1  UNL1        0.1718
     37 H           8.2040   -4.7827   -4.8896 H       1  UNL1        0.1729
     38 H           7.8635   -7.4105   -5.5706 H       1  UNL1        0.0795
     39 H           7.6966   -6.3736   -7.0255 H       1  UNL1        0.0795
     40 H           5.1076   -8.4119   -9.0159 H       1  UNL1        0.0654
     41 H           5.6248  -10.3545  -10.4548 H       1  UNL1        0.0630
     42 H           8.9204  -11.3664   -7.8834 H       1  UNL1        0.0630
     43 H           8.3089   -9.5294   -6.3579 H       1  UNL1        0.0654
     44 H           4.6806   -0.5652   -1.3972 H       1  UNL1        0.0633
@<TRIPOS>BOND
     1     1     2    1
     2     2     3    1
     3     3     4    2
     4     3     5    1
     5     5     6   ar
     6     6     7   ar
     7     7     8   ar
     8     8     9   ar
     9     9    10    1
    10    10    11    2
    11    10    12   am
    12    12    13    1
    13    13    14    2
    14    13    15    1
    15    15    16    1
    16    16    17   am
    17    17    18    2
    18    17    19    1
    19    19    20    1
    20    20    21    1
    21    21    22   ar
    22    22    23   ar
    23    23    24   ar
    24    24    25    1
    25    24    26   ar
    26    26    27   ar
    27    21    27   ar
    28     9    28   ar
    29     5    28   ar
    30     1    29    1
    31     1    30    1
    32     1    31    1
    33     6    32    1
    34     7    33    1
    35     8    34    1
    36    12    35    1
    37    15    36    1
    38    16    37    1
    39    19    38    1
    40    19    39    1
    41    22    40    1
    42    23    41    1
    43    26    42    1
    44    27    43    1
    45    28    44    1
