@<TRIPOS>MOLECULE
*****
 51 52 0 0 0
SMALL
GASTEIGER

@<TRIPOS>ATOM
      1 C         -11.1642   18.2607   -3.3111 C.3     1  UNL1       -0.0397
      2 C         -10.8256   16.8070   -3.4677 C.ar    1  UNL1       -0.0502
      3 C         -10.2813   16.3018   -4.6524 C.ar    1  UNL1       -0.0554
      4 C          -9.9932   14.9324   -4.7759 C.ar    1  UNL1       -0.0197
      5 C         -10.2444   14.0472   -3.7199 C.ar    1  UNL1        0.1206
      6 O          -9.9445   12.7223   -3.9402 O.3     1  UNL1       -0.4904
      7 C         -10.2166   11.8119   -2.8582 C.3     1  UNL1        0.1051
      8 C          -9.8457   10.3722   -3.2481 C.3     1  UNL1        0.0472
      9 N         -10.0792    9.3695   -2.2025 N.am    1  UNL1       -0.2962
     10 C          -9.7658    8.0491   -2.4206 C.2     1  UNL1        0.2998
     11 O          -9.3295    7.6301   -3.4901 O.2     1  UNL1       -0.2529
     12 N          -9.9699    7.2387   -1.3354 N.am    1  UNL1       -0.2968
     13 C          -9.7765    5.7893   -1.4221 C.3     1  UNL1        0.0423
     14 C         -10.3472    5.0037   -0.2232 C.3     1  UNL1        0.1046
     15 O          -9.8592    3.6569   -0.1967 O.3     1  UNL1       -0.3869
     16 C         -11.8842    4.9939   -0.2319 C.3     1  UNL1        0.1169
     17 O         -12.3524    6.3428   -0.2921 O.3     1  UNL1       -0.4893
     18 C         -13.7027    6.5211   -0.2577 C.ar    1  UNL1        0.1210
     19 C         -14.2076    7.5613   -1.0452 C.ar    1  UNL1       -0.0135
     20 C         -15.5533    7.9271   -0.9518 C.ar    1  UNL1        0.0190
     21 C         -16.4051    7.1929   -0.1177 C.ar    1  UNL1        0.2734
     22 N         -17.8457    7.4748   -0.1118 N.pl3   1  UNL1        0.0796
     23 O         -18.2580    8.3870   -0.8417 O.2     1  UNL1        0.0414
     24 O         -18.5670    6.7667    0.6054 O.co2   1  UNL1       -0.5760
     25 C         -15.9019    6.1529    0.6737 C.ar    1  UNL1        0.0190
     26 C         -14.5464    5.8254    0.6055 C.ar    1  UNL1       -0.0135
     27 C         -10.7765   14.5602   -2.5366 C.ar    1  UNL1       -0.0197
     28 C         -11.0655   15.9239   -2.4117 C.ar    1  UNL1       -0.0554
     29 H         -10.9121   18.8353   -4.2079 H       1  UNL1        0.0278
     30 H         -10.6107   18.6905   -2.4694 H       1  UNL1        0.0278
     31 H         -12.2377   18.3781   -3.1275 H       1  UNL1        0.0278
     32 H         -10.0810   16.9684   -5.4895 H       1  UNL1        0.0621
     33 H          -9.5727   14.5654   -5.7096 H       1  UNL1        0.0654
     34 H         -11.2845   11.8449   -2.6106 H       1  UNL1        0.0712
     35 H          -9.6257   12.1022   -1.9811 H       1  UNL1        0.0712
     36 H          -8.7866   10.3276   -3.5283 H       1  UNL1        0.0496
     37 H         -10.4112   10.0718   -4.1381 H       1  UNL1        0.0496
     38 H         -10.4383    9.6521   -1.3029 H       1  UNL1        0.1504
     39 H         -10.4954    7.5943   -0.5486 H       1  UNL1        0.1503
     40 H          -8.6997    5.6043   -1.5100 H       1  UNL1        0.0489
     41 H         -10.2265    5.4165   -2.3514 H       1  UNL1        0.0489
     42 H          -9.9990    5.4786    0.7020 H       1  UNL1        0.0643
     43 H         -10.1443    3.2019   -1.0085 H       1  UNL1        0.2100
     44 H         -12.2250    4.4726    0.6696 H       1  UNL1        0.0723
     45 H         -12.2482    4.4337   -1.1030 H       1  UNL1        0.0723
     46 H         -13.5548    8.0848   -1.7420 H       1  UNL1        0.0656
     47 H         -15.9179    8.7753   -1.5280 H       1  UNL1        0.0686
     48 H         -16.5423    5.5982    1.3559 H       1  UNL1        0.0686
     49 H         -14.1699    5.0427    1.2552 H       1  UNL1        0.0656
     50 H         -10.9851   13.9272   -1.6828 H       1  UNL1        0.0654
     51 H         -11.4859   16.2912   -1.4782 H       1  UNL1        0.0621
@<TRIPOS>UNITY_ATOM_ATTR
22 1
charge 1
24 1
charge -1
@<TRIPOS>BOND
     1     1     2    1
     2     2     3   ar
     3     3     4   ar
     4     4     5   ar
     5     5     6    1
     6     6     7    1
     7     7     8    1
     8     8     9    1
     9     9    10   am
    10    10    11    2
    11    10    12   am
    12    12    13    1
    13    14    16    1
    14    16    17    1
    15    17    18    1
    16    18    19   ar
    17    19    20   ar
    18    20    21   ar
    19    21    22    1
    20    22    23    2
    21    22    24    1
    22    21    25   ar
    23    25    26   ar
    24    18    26   ar
    25     5    27   ar
    26    27    28   ar
    27     2    28   ar
    28    14    15    1
    29    14    13    1
    30     1    29    1
    31     1    30    1
    32     1    31    1
    33     3    32    1
    34     4    33    1
    35     7    34    1
    36     7    35    1
    37     8    36    1
    38     8    37    1
    39     9    38    1
    40    12    39    1
    41    13    40    1
    42    13    41    1
    43    14    42    1
    44    15    43    1
    45    16    44    1
    46    16    45    1
    47    19    46    1
    48    20    47    1
    49    25    48    1
    50    26    49    1
    51    27    50    1
    52    28    51    1
