@<TRIPOS>MOLECULE
*****
 56 59 0 0 0
SMALL
GASTEIGER

@<TRIPOS>ATOM
      1 C          -5.1718    6.2252  -13.8132 C.3     0  UNK0       -0.0613
      2 C          -4.0573    5.2150  -13.5474 C.3     0  UNK0       -0.0305
      3 C          -3.5033    5.3813  -12.1528 C.ar    0  UNK0       -0.0476
      4 C          -2.1456    5.5802  -11.8944 C.ar    0  UNK0       -0.0582
      5 C          -1.6997    5.7446  -10.5705 C.ar    0  UNK0       -0.0549
      6 C          -2.6080    5.8110   -9.4876 C.ar    0  UNK0       -0.0082
      7 C          -2.1184    6.0854   -8.0843 C.3     0  UNK0        0.1281
      8 N          -1.5271    7.3919   -7.8802 N.pl3   0  UNK0       -0.2424
      9 N          -1.7750    7.9439   -6.6481 N.2     0  UNK0       -0.1627
     10 C          -2.7807    7.2636   -6.1983 C.2     0  UNK0        0.1730
     11 S          -3.6882    7.4246   -4.7512 S.3     0  UNK0       -0.0798
     12 C          -2.7709    8.6965   -3.8227 C.3     0  UNK0        0.0774
     13 C          -3.3049    8.9538   -2.4287 C.2     0  UNK0        0.2238
     14 O          -4.3469    8.4243   -1.9737 O.2     0  UNK0       -0.2749
     15 N          -2.5616    9.7945   -1.6521 N.am    1  TRP1       -0.3063
     16 CA         -1.3067   10.6755   -2.0245 C.3     1  TRP1        0.0666
     17 CB          0.1309    9.6425   -2.0854 C.3     1  TRP1       -0.0019
     18 CG          1.6610    9.8668   -2.9229 C.ar    1  TRP1       -0.0203
     19 CD1         2.1242   11.0371   -2.3360 C.ar    1  TRP1        0.0060
     20 NE1         2.5306   11.5895   -3.5213 N.ar    1  TRP1       -0.3604
     21 CE2         3.6691   10.8894   -3.7701 C.ar    1  TRP1        0.0467
     22 CZ2         4.8754   11.5129   -4.1640 C.ar    1  TRP1       -0.0378
     23 CH2         6.0721   10.8748   -4.2632 C.ar    1  TRP1       -0.0598
     24 CZ3         5.9903    9.5410   -3.9656 C.ar    1  TRP1       -0.0611
     25 CE3         4.6476    8.8394   -3.5958 C.ar    1  TRP1       -0.0523
     26 CD2         3.3229    9.5817   -3.4209 C.ar    1  TRP1        0.0029
     27 C          -1.4632   11.9688   -1.0014 C.2     1  TRP1        0.0623
     28 O          -0.4818   12.2142   -0.2578 O.co2   1  TRP1       -0.5479
     29 OXT        -2.6189   12.5119   -1.0132 O.co2   1  TRP1       -0.5479
     30 N          -3.1693    6.2095   -7.0765 N.pl3   0  UNK0       -0.2996
     31 C          -3.9531    5.5541   -9.7658 C.ar    0  UNK0       -0.0549
     32 C          -4.3854    5.3251  -11.0695 C.ar    0  UNK0       -0.0582
     33 H          -5.5897    6.0942  -14.8142 H       0  UNK0        0.0233
     34 H          -4.7948    7.2490  -13.7167 H       0  UNK0        0.0233
     35 H          -6.0002    6.1162  -13.1042 H       0  UNK0        0.0233
     36 H          -3.2727    5.3314  -14.3043 H       0  UNK0        0.0311
     37 H          -4.4487    4.1947  -13.6479 H       0  UNK0        0.0311
     38 H          -1.4269    5.6215  -12.7131 H       0  UNK0        0.0620
     39 H          -0.6254    5.8177  -10.3996 H       0  UNK0        0.0621
     40 H          -1.4506    5.2725   -7.7744 H       0  UNK0        0.0772
     41 H          -0.7506    7.7102   -8.4489 H       0  UNK0        0.1705
     42 H          -2.8081    9.6468   -4.3616 H       0  UNK0        0.0475
     43 H          -1.7404    8.3653   -3.7006 H       0  UNK0        0.0475
     44 H          -3.0656   10.1203   -0.8155 H       1  TRP1        0.1494
     45 HA         -1.5727   11.0982   -3.0069 H       1  TRP1        0.0563
     46 HB1         0.4593    9.8296   -1.0561 H       1  TRP1        0.0335
     47 HB2        -0.2065    8.6183   -2.1740 H       1  TRP1        0.0335
     48 HD1         2.7689   10.9167   -1.4612 H       1  TRP1        0.0810
     49 HE1         1.9434   11.7573   -4.3143 H       1  TRP1        0.1653
     50 HZ2         4.8186   12.5766   -4.2679 H       1  TRP1        0.0638
     51 HH2         6.9696   11.4551   -4.5228 H       1  TRP1        0.0618
     52 HZ3         6.9716    9.0291   -3.9798 H       1  TRP1        0.0618
     53 HE3         4.8733    7.7845   -3.4418 H       1  TRP1        0.0624
     54 H          -4.0311    5.7108   -6.9613 H       0  UNK0        0.1501
     55 H          -4.7068    5.5250   -8.9875 H       0  UNK0        0.0621
     56 H          -5.4421    5.1305  -11.2382 H       0  UNK0        0.0620
@<TRIPOS>UNITY_ATOM_ATTR
29 1
charge -1
@<TRIPOS>BOND
     1     1     2    1
     2     2     3    1
     3     3     4   ar
     4     4     5   ar
     5     5     6   ar
     6     7     8    1
     7     8     9    1
     8     9    10    2
     9    10    11    1
    10    11    12    1
    11    12    13    1
    12    13    14    2
    13    13    15   am
    14    17    18    1
    15    18    19   ar
    16    19    20   ar
    17    20    21   ar
    18    21    22   ar
    19    22    23   ar
    20    23    24   ar
    21    24    25   ar
    22    25    26   ar
    23    18    26   ar
    24    21    26   ar
    25    16    27    1
    26    27    28   ar
    27    27    29   ar
    28    10    30    1
    29     7    30    1
    30     6    31   ar
    31    31    32   ar
    32     3    32   ar
    33     7     6    1
    34    16    17    1
    35    16    15    1
    36     1    33    1
    37     1    34    1
    38     1    35    1
    39     2    36    1
    40     2    37    1
    41     4    38    1
    42     5    39    1
    43     7    40    1
    44     8    41    1
    45    12    42    1
    46    12    43    1
    47    15    44    1
    48    16    45    1
    49    17    46    1
    50    17    47    1
    51    19    48    1
    52    20    49    1
    53    22    50    1
    54    23    51    1
    55    24    52    1
    56    25    53    1
    57    30    54    1
    58    31    55    1
    59    32    56    1
