@<TRIPOS>MOLECULE
*****
 39 41 0 0 0
SMALL
GASTEIGER

@<TRIPOS>ATOM
      1 O           0.9915   -0.0569    0.0012 O.2     1  UNL1       -0.2699
      2 C           2.2198   -0.0394    0.1103 C.2     1  UNL1        0.2483
      3 N           2.9139    0.1899    1.2924 N.am    1  UNL1       -0.2815
      4 C           2.2626    0.3226    2.5409 C.ar    1  UNL1        0.0344
      5 C           2.7376    1.2090    3.5104 C.ar    1  UNL1       -0.0404
      6 C           2.1258    1.2588    4.7686 C.ar    1  UNL1       -0.0593
      7 C           1.0293    0.4383    5.0479 C.ar    1  UNL1       -0.0495
      8 C           0.5492   -0.4592    4.0828 C.ar    1  UNL1        0.0388
      9 C          -0.5738   -1.3736    4.4428 C.2     1  UNL1        0.2483
     10 O          -1.0552   -1.2755    5.5741 O.2     1  UNL1       -0.2699
     11 N          -0.9581   -2.3368    3.5166 N.am    1  UNL1       -0.2802
     12 C          -1.9988   -3.2539    3.7656 C.ar    1  UNL1        0.0519
     13 C          -3.1654   -2.8584    4.4119 C.ar    1  UNL1       -0.0376
     14 C          -4.1784   -3.7825    4.6355 C.ar    1  UNL1       -0.0418
     15 C          -3.9828   -5.0855    4.2105 C.ar    1  UNL1        0.0277
     16 N          -2.8705   -5.5097    3.5691 N.ar    1  UNL1       -0.2614
     17 C          -1.9079   -4.5795    3.3507 C.ar    1  UNL1        0.0487
     18 C           1.1672   -0.4949    2.8327 C.ar    1  UNL1       -0.0283
     19 C           3.0245   -0.1725   -1.1250 C.ar    1  UNL1        0.0370
     20 C           4.1526   -0.9954   -1.1873 C.ar    1  UNL1       -0.0496
     21 C           4.9080   -1.0392   -2.3638 C.ar    1  UNL1       -0.0610
     22 C           4.4982   -0.3257   -3.4928 C.ar    1  UNL1       -0.0617
     23 C           3.3455    0.4560   -3.4447 C.ar    1  UNL1       -0.0610
     24 C           2.6087    0.5323   -2.2628 C.ar    1  UNL1       -0.0496
     25 H           3.8964    0.4343    1.2442 H       1  UNL1        0.1551
     26 H           3.5379    1.9110    3.2903 H       1  UNL1        0.0636
     27 H           2.5003    1.9306    5.5390 H       1  UNL1        0.0618
     28 H           0.5524    0.4980    6.0263 H       1  UNL1        0.0625
     29 H          -0.3839   -2.5253    2.7070 H       1  UNL1        0.1552
     30 H          -3.3048   -1.8252    4.7161 H       1  UNL1        0.0637
     31 H          -5.0955   -3.4830    5.1280 H       1  UNL1        0.0633
     32 H          -4.7438   -5.8421    4.3777 H       1  UNL1        0.0829
     33 H          -1.0159   -4.9675    2.8672 H       1  UNL1        0.0848
     34 H           0.8358   -1.1854    2.0703 H       1  UNL1        0.0644
     35 H           4.4317   -1.6260   -0.3480 H       1  UNL1        0.0625
     36 H           5.8191   -1.6315   -2.4069 H       1  UNL1        0.0618
     37 H           5.0709   -0.3886   -4.4157 H       1  UNL1        0.0618
     38 H           3.0249    1.0120   -4.3226 H       1  UNL1        0.0618
     39 H           1.7080    1.1425   -2.2274 H       1  UNL1        0.0625
@<TRIPOS>BOND
     1     1     2    2
     2     2     3   am
     3     3     4    1
     4     4     5   ar
     5     5     6   ar
     6     6     7   ar
     7     7     8   ar
     8     8     9    1
     9     9    10    2
    10     9    11   am
    11    11    12    1
    12    12    13   ar
    13    13    14   ar
    14    14    15   ar
    15    15    16   ar
    16    16    17   ar
    17    12    17   ar
    18     8    18   ar
    19     4    18   ar
    20     2    19    1
    21    19    20   ar
    22    20    21   ar
    23    21    22   ar
    24    22    23   ar
    25    23    24   ar
    26    19    24   ar
    27     3    25    1
    28     5    26    1
    29     6    27    1
    30     7    28    1
    31    11    29    1
    32    13    30    1
    33    14    31    1
    34    15    32    1
    35    17    33    1
    36    18    34    1
    37    20    35    1
    38    21    36    1
    39    22    37    1
    40    23    38    1
    41    24    39    1
