REMARK  13 active torsions:
REMARK  status: ('A' for Active; 'I' for Inactive)
REMARK    1  A    between atoms: C_3  and  O_2 
REMARK    2  A    between atoms: C_3  and  C_32 
REMARK    3  A    between atoms: C_3  and  C_4 
REMARK       I    between atoms: C_4  and  N_6 
REMARK    4  A    between atoms: N_6  and  C_28 
REMARK    5  A    between atoms: C_7  and  N_6 
REMARK    6  A    between atoms: C_7  and  C_19 
REMARK    7  A    between atoms: C_7  and  C_8 
REMARK       I    between atoms: C_8  and  N_10 
REMARK    8  A    between atoms: N_10  and  C_11 
REMARK    9  A    between atoms: C_11  and  C_14 
REMARK   10  A    between atoms: C_14  and  C_15 
REMARK   11  A    between atoms: C_20  and  O_21 
REMARK   12  A    between atoms: C_23  and  O_24 
REMARK   13  A    between atoms: C_26  and  O_27 
ROOT
ATOM      1  C   UNL d   1       2.905   1.123  -2.473  0.00  0.00     0.219 C 
ENDROOT
BRANCH   1   2
ATOM      2  C   UNL d   1       3.973  -0.004  -2.553  0.00  0.00     0.040 C 
ATOM      3  C   UNL d   1       5.322   0.033  -2.098  0.00  0.00     0.080 C 
ATOM      4  C   UNL d   1       6.130  -1.085  -2.005  0.00  0.00     0.073 C 
ATOM      5  C   UNL d   1       5.726  -2.242  -2.599  0.00  0.00     0.071 C 
ATOM      6  C   UNL d   1       4.500  -2.296  -3.243  0.00  0.00     0.073 C 
ATOM      7  C   UNL d   1       3.623  -1.201  -3.183  0.00  0.00     0.080 C 
BRANCH   3   8
ATOM      8  O   UNL d   1       6.108   1.102  -1.800  0.00  0.00    -0.360 OA
ATOM      9  H   UNL d   1       5.923   1.473  -0.930  0.00  0.00     0.217 HD
ENDBRANCH   3   8
BRANCH   5  10
ATOM     10  O   UNL d   1       6.567  -3.308  -2.586  0.00  0.00    -0.361 OA
ATOM     11  H   UNL d   1       7.375  -3.022  -2.119  0.00  0.00     0.217 HD
ENDBRANCH   5  10
BRANCH   7  12
ATOM     12  O   UNL d   1       2.398  -1.286  -3.784  0.00  0.00    -0.360 OA
ATOM     13  H   UNL d   1       2.394  -2.068  -4.363  0.00  0.00     0.217 HD
ENDBRANCH   7  12
ENDBRANCH   1   2
BRANCH   1  14
ATOM     14  C   UNL d   1       1.353   0.815  -1.749  0.00  0.00     0.246 C 
ATOM     15  O   UNL d   1       0.428   1.663  -1.951  0.00  0.00    -0.271 OA
ATOM     16  N   UNL d   1       1.123  -0.223  -0.804  0.00  0.00    -0.351 N 
ATOM     17  H   UNL d   1       1.614  -1.055  -1.112  0.00  0.00     0.163 HD
BRANCH  16  18
ATOM     18  C   UNL d   1       0.708  -0.129   0.858  0.00  0.00     0.026 C 
ATOM     19  C   UNL d   1       1.551   0.682   2.014  0.00  0.00     0.038 C 
ATOM     20  C   UNL d   1      -0.627   0.568   0.726  0.00  0.00     0.038 C 
BRANCH  18  21
ATOM     21  C   UNL d   1       0.661  -1.585   1.538  0.00  0.00     0.038 C 
BRANCH  21  22
ATOM     22  C   UNL d   1       0.090  -1.760   2.992  0.00  0.00    -0.049 C 
ATOM     23  C   UNL d   1       0.906  -1.120   4.152  0.00  0.00     0.014 C 
ATOM     24  C   UNL d   1      -1.347  -1.274   3.001  0.00  0.00     0.014 C 
ATOM     25  C   UNL d   1       0.109  -3.260   3.331  0.00  0.00     0.014 C 
ENDBRANCH  21  22
ENDBRANCH  18  21
ENDBRANCH  16  18
ENDBRANCH   1  14
BRANCH   1  26
ATOM     26  N   UNL d   1       3.565   2.507  -2.311  0.00  0.00    -0.324 N 
ATOM     27  C   UNL d   1       4.394   2.832  -1.198  0.00  0.00     0.255 C 
ATOM     28  O   UNL d   1       5.448   3.501  -1.366  0.00  0.00    -0.270 OA
BRANCH  27  29
ATOM     29  C   UNL d   1       4.199   2.389   0.317  0.00  0.00     0.245 C 
BRANCH  29  30
ATOM     30  C   UNL d   1       4.430   0.849   0.700  0.00  0.00    -0.020 C 
ATOM     31  C   UNL d   1       5.530   0.158   1.159  0.00  0.00     0.010 C 
ATOM     32  C   UNL d   1       5.557  -1.302   1.252  0.00  0.00     0.001 C 
ATOM     33  C   UNL d   1       4.477  -2.126   0.964  0.00  0.00     0.000 C 
ATOM     34  C   UNL d   1       3.466  -1.494   0.364  0.00  0.00     0.001 C 
ATOM     35  C   UNL d   1       3.520  -0.084   0.291  0.00  0.00     0.010 C 
ENDBRANCH  29  30
BRANCH  29  36
ATOM     36  O   UNL d   1       3.091   3.180   0.834  0.00  0.00    -0.377 OA
ATOM     37  C   UNL d   1       1.907   2.910   0.127  0.00  0.00     0.203 C 
ENDBRANCH  29  36
ENDBRANCH  27  29
BRANCH  26  38
ATOM     38  C   UNL d   1       3.839   3.298  -3.601  0.00  0.00     0.025 C 
ATOM     39  C   UNL d   1       4.038   4.815  -3.302  0.00  0.00     0.037 C 
ATOM     40  C   UNL d   1       5.087   2.751  -4.326  0.00  0.00     0.037 C 
ATOM     41  C   UNL d   1       2.662   3.276  -4.620  0.00  0.00     0.037 C 
ENDBRANCH  26  38
ENDBRANCH   1  26
TORSDOF 13
