@<TRIPOS>MOLECULE
*****
 26 26 0 0 0
SMALL
GASTEIGER

@<TRIPOS>ATOM
      1 O           5.1413   -5.2599    0.7353 O.2     1  UNL1       -0.2702
      2 C           3.9495   -5.3056    0.4471 C.2     1  UNL1        0.2442
      3 N           3.3688   -4.5111   -0.5148 N.am    1  UNL1       -0.3088
      4 C           4.1530   -3.5511   -1.2880 C.3     1  UNL1        0.0390
      5 C           3.3053   -2.8095   -2.3351 C.3     1  UNL1        0.0840
      6 O           2.3601   -1.9441   -1.6842 O.3     1  UNL1       -0.3891
      7 C           2.5493   -3.7649   -3.2619 C.3     1  UNL1        0.0500
      8 CL          3.6331   -4.8254   -4.1847 Cl      1  UNL1       -0.1227
      9 C           3.0102   -6.1658    1.2174 C.ar    1  UNL1        0.0367
     10 C           1.9344   -6.8412    0.6240 C.ar    1  UNL1       -0.0496
     11 C           0.9846   -7.4753    1.4336 C.ar    1  UNL1       -0.0610
     12 C           1.1509   -7.5045    2.8196 C.ar    1  UNL1       -0.0617
     13 C           2.2538   -6.8831    3.4032 C.ar    1  UNL1       -0.0610
     14 C           3.1818   -6.2161    2.6039 C.ar    1  UNL1       -0.0496
     15 H           2.3655   -4.5542   -0.6209 H       1  UNL1        0.1491
     16 H           4.9769   -4.0941   -1.7642 H       1  UNL1        0.0488
     17 H           4.5988   -2.8378   -0.5834 H       1  UNL1        0.0488
     18 H           3.9537   -2.1544   -2.9294 H       1  UNL1        0.0621
     19 H           1.8842   -2.4554   -1.0086 H       1  UNL1        0.2099
     20 H           1.9263   -3.2083   -3.9672 H       1  UNL1        0.0455
     21 H           1.8647   -4.3999   -2.6895 H       1  UNL1        0.0455
     22 H           1.8316   -6.8958   -0.4566 H       1  UNL1        0.0625
     23 H           0.1067   -7.9416    0.9912 H       1  UNL1        0.0618
     24 H           0.4256   -8.0188    3.4467 H       1  UNL1        0.0618
     25 H           2.3822   -6.8969    4.4824 H       1  UNL1        0.0618
     26 H           4.0306   -5.7132    3.0616 H       1  UNL1        0.0625
@<TRIPOS>BOND
     1     1     2    2
     2     2     3   am
     3     3     4    1
     4     5     7    1
     5     7     8    1
     6     2     9    1
     7     9    10   ar
     8    10    11   ar
     9    11    12   ar
    10    12    13   ar
    11    13    14   ar
    12     9    14   ar
    13     5     6    1
    14     5     4    1
    15     3    15    1
    16     4    16    1
    17     4    17    1
    18     5    18    1
    19     6    19    1
    20     7    20    1
    21     7    21    1
    22    10    22    1
    23    11    23    1
    24    12    24    1
    25    13    25    1
    26    14    26    1
