REMARK  9 active torsions:
REMARK  status: ('A' for Active; 'I' for Inactive)
REMARK    1  A    between atoms: O_2  and  C_3 
REMARK    2  A    between atoms: C_6  and  C_7 
REMARK    3  A    between atoms: C_8  and  C_9 
REMARK       I    between atoms: C_9  and  N_11 
REMARK    4  A    between atoms: N_11  and  C_12 
REMARK    5  A    between atoms: C_12  and  N_14 
REMARK    6  A    between atoms: N_14  and  C_15 
REMARK    7  A    between atoms: C_20  and  C_21 
REMARK       I    between atoms: C_21  and  N_23 
REMARK    8  A    between atoms: N_23  and  C_24 
REMARK    9  A    between atoms: C_25  and  C_24 
ROOT
ATOM      1  N   UNL d   1       1.847   9.912  -3.874  0.00  0.00    -0.332 N 
ATOM      2  H   UNL d   1       1.503  10.475  -4.643  0.00  0.00     0.168 HD
ENDROOT
BRANCH   1   3
ATOM      3  C   UNL d   1       1.212   8.634  -3.699  0.00  0.00     0.179 C 
ATOM      4  S   UNL d   1       0.891   7.998  -2.164  0.00  0.00    -0.040 SA
BRANCH   3   5
ATOM      5  N   UNL d   1       0.967   7.971  -4.966  0.00  0.00    -0.300 N 
ATOM      6  C   UNL d   1       0.458   6.639  -5.133  0.00  0.00     0.247 C 
ATOM      7  O   UNL d   1      -0.189   6.085  -4.223  0.00  0.00    -0.268 OA
ATOM      8  H   UNL d   1       1.574   8.302  -5.704  0.00  0.00     0.171 HD
BRANCH   6   9
ATOM      9  C   UNL d   1       0.796   5.751  -6.441  0.00  0.00     0.075 C 
ATOM     10  C   UNL d   1       0.877   4.369  -6.517  0.00  0.00     0.017 C 
BRANCH  10  11
ATOM     11  C   UNL d   1       1.149   3.400  -7.613  0.00  0.00    -0.036 A 
ATOM     12  C   UNL d   1       1.272   1.982  -7.444  0.00  0.00     0.014 A 
ATOM     13  C   UNL d   1       1.303   1.124  -8.559  0.00  0.00     0.037 A 
ATOM     14  C   UNL d   1       1.177   1.684  -9.826  0.00  0.00     0.068 A 
ATOM     15  C   UNL d   1       1.051   3.067  -9.969  0.00  0.00     0.037 A 
ATOM     16  C   UNL d   1       1.086   3.914  -8.885  0.00  0.00     0.014 A 
BRANCH  14  17
ATOM     17  O   UNL d   1       1.119   0.846 -10.906  0.00  0.00    -0.356 OA
ATOM     18  C   UNL d   1       1.789   1.391 -12.044  0.00  0.00     0.210 C 
ENDBRANCH  14  17
ENDBRANCH  10  11
ENDBRANCH   6   9
ENDBRANCH   3   5
ENDBRANCH   1   3
BRANCH   1  19
ATOM     19  C   UNL d   1       2.294  10.682  -2.732  0.00  0.00     0.050 A 
ATOM     20  C   UNL d   1       1.552  11.829  -2.352  0.00  0.00     0.030 A 
ATOM     21  C   UNL d   1       1.856  12.533  -1.174  0.00  0.00     0.002 A 
ATOM     22  C   UNL d   1       2.871  12.074  -0.342  0.00  0.00     0.001 A 
ATOM     23  C   UNL d   1       3.626  10.953  -0.719  0.00  0.00     0.019 A 
ATOM     24  C   UNL d   1       3.378  10.257  -1.929  0.00  0.00     0.058 A 
BRANCH  24  25
ATOM     25  C   UNL d   1       4.261   9.056  -2.232  0.00  0.00     0.254 C 
ATOM     26  O   UNL d   1       5.033   8.641  -1.370  0.00  0.00    -0.268 OA
ATOM     27  N   UNL d   1       4.176   8.431  -3.477  0.00  0.00    -0.354 N 
ATOM     28  H   UNL d   1       3.467   8.775  -4.109  0.00  0.00     0.162 HD
BRANCH  27  29
ATOM     29  C   UNL d   1       4.672   7.049  -3.652  0.00  0.00     0.155 C 
BRANCH  29  30
ATOM     30  C   UNL d   1       4.153   6.320  -4.903  0.00  0.00     0.139 C 
ATOM     31  C   UNL d   1       4.560   4.871  -5.140  0.00  0.00     0.035 C 
ATOM     32  C   UNL d   1       3.583   4.017  -4.350  0.00  0.00     0.029 C 
ATOM     33  C   UNL d   1       2.451   4.935  -4.078  0.00  0.00     0.168 C 
ATOM     34  O   UNL d   1       2.763   6.182  -4.701  0.00  0.00    -0.384 OA
ENDBRANCH  29  30
ENDBRANCH  27  29
ENDBRANCH  24  25
ENDBRANCH   1  19
TORSDOF 9
