REMARK  7 active torsions:
REMARK  status: ('A' for Active; 'I' for Inactive)
REMARK    1  A    between atoms: O_2  and  C_3 
REMARK    2  A    between atoms: C_6  and  N_7 
REMARK       I    between atoms: N_7  and  C_8 
REMARK       I    between atoms: C_8  and  N_21 
REMARK       I    between atoms: N_9  and  C_10 
REMARK    3  A    between atoms: C_10  and  C_12 
REMARK    4  A    between atoms: C_15  and  N_16 
REMARK    5  A    between atoms: N_21  and  C_22 
REMARK    6  A    between atoms: C_22  and  C_23 
REMARK    7  A    between atoms: C_23  and  C_24 
ROOT
ATOM      1  N   UNL d   1       5.611  -3.033   3.234  0.00  0.00    -0.190 N 
ATOM      2  C   UNL d   1       5.171  -4.288   3.711  0.00  0.00     0.704 C 
ATOM      3  N   UNL d   1       4.080  -4.963   3.466  0.00  0.00    -0.023 NA
ATOM      4  C   UNL d   1       2.957  -4.239   3.166  0.00  0.00     0.293 C 
ATOM      5  O   UNL d   1       2.619  -3.250   3.778  0.00  0.00    -0.265 OA
ATOM      6  N   UNL d   1       6.029  -4.946   4.607  0.00  0.00    -0.224 N 
ATOM      7  H   UNL d   1       6.335  -2.571   3.765  0.00  0.00     0.184 HD
ATOM      8  H   UNL d   1       6.735  -4.414   5.104  0.00  0.00     0.177 HD
ENDROOT
BRANCH   1   9
ATOM      9  C   UNL d   1       4.974  -2.151   2.294  0.00  0.00     0.049 C 
ATOM     10  C   UNL d   1       5.249  -0.795   2.136  0.00  0.00     0.033 C 
ATOM     11  C   UNL d   1       4.375   0.051   1.376  0.00  0.00     0.039 C 
ATOM     12  C   UNL d   1       3.169  -0.418   0.852  0.00  0.00     0.068 C 
ATOM     13  C   UNL d   1       2.927  -1.751   0.999  0.00  0.00     0.039 C 
ATOM     14  C   UNL d   1       3.965  -2.578   1.452  0.00  0.00     0.033 C 
BRANCH  12  15
ATOM     15  O   UNL d   1       2.412   0.392   0.053  0.00  0.00    -0.356 OA
ATOM     16  C   UNL d   1       1.010   0.114  -0.049  0.00  0.00     0.210 C 
ENDBRANCH  12  15
ENDBRANCH   1   9
BRANCH   6  17
ATOM     17  C   UNL d   1       5.554  -6.196   5.260  0.00  0.00     0.142 C 
BRANCH  17  18
ATOM     18  C   UNL d   1       6.516  -6.784   6.282  0.00  0.00     0.057 C 
BRANCH  18  19
ATOM     19  C   UNL d   1       6.179  -8.130   6.882  0.00  0.00    -0.048 A 
ATOM     20  C   UNL d   1       7.056  -8.738   7.684  0.00  0.00    -0.006 A 
ATOM     21  C   UNL d   1       8.349  -8.335   8.101  0.00  0.00     0.014 C 
ATOM     22  C   UNL d   1       6.479 -10.035   8.058  0.00  0.00     0.038 A 
ATOM     23  C   UNL d   1       9.117  -9.229   8.730  0.00  0.00     0.001 C 
ATOM     24  C   UNL d   1       8.589 -10.521   9.134  0.00  0.00     0.002 C 
ATOM     25  C   UNL d   1       7.335 -10.943   8.856  0.00  0.00     0.030 C 
ATOM     26  N   UNL d   1       5.296 -10.168   7.589  0.00  0.00    -0.385 N 
ATOM     27  C   UNL d   1       4.967  -9.007   6.691  0.00  0.00     0.155 A 
ATOM     28  H   UNL d   1       4.703 -10.967   7.817  0.00  0.00     0.160 HD
ENDBRANCH  18  19
ENDBRANCH  17  18
ENDBRANCH   6  17
BRANCH   4  29
ATOM     29  C   UNL d   1       1.927  -4.883   2.307  0.00  0.00     0.035 C 
ATOM     30  C   UNL d   1       1.645  -4.729   0.936  0.00  0.00     0.019 C 
ATOM     31  C   UNL d   1       0.362  -5.030   0.450  0.00  0.00     0.030 C 
ATOM     32  C   UNL d   1      -0.608  -5.622   1.268  0.00  0.00     0.029 C 
ATOM     33  C   UNL d   1      -0.268  -5.737   2.625  0.00  0.00     0.030 C 
ATOM     34  C   UNL d   1       0.962  -5.390   3.136  0.00  0.00     0.019 C 
BRANCH  32  35
ATOM     35  N   UNL d   1      -1.839  -6.051   0.809  0.00  0.00    -0.390 N 
ATOM     36  C   UNL d   1      -2.209  -6.056  -0.605  0.00  0.00     0.149 C 
ATOM     37  C   UNL d   1      -2.728  -6.835   1.668  0.00  0.00     0.149 C 
ENDBRANCH  32  35
ENDBRANCH   4  29
TORSDOF 7
