@<TRIPOS>MOLECULE
*****
 69 71 0 0 0
SMALL
GASTEIGER

@<TRIPOS>ATOM
      1 C           0.8705   -0.0408    0.1374 C.3     1  UNL1       -0.0652
      2 C           2.3759   -0.0306    0.0828 C.3     1  UNL1       -0.0545
      3 C           2.7500    0.2542   -1.3609 C.3     1  UNL1       -0.0376
      4 C           4.2159    0.2682   -1.4945 C.3     1  UNL1        0.0116
      5 N           4.6549    0.4750   -2.8801 N.am    1  UNL1       -0.3135
      6 C           6.0034    0.5520   -2.9613 C.2     1  UNL1        0.2381
      7 O           6.4521    0.3233   -1.8255 O.2     1  UNL1       -0.2734
      8 C           6.8714    0.8846   -4.2580 C.3     1  UNL1        0.1275
      9 C           6.4122    2.2567   -4.7535 C.ar    1  UNL1       -0.0180
     10 C           7.0045    3.4159   -4.2246 C.ar    1  UNL1       -0.0529
     11 C           6.6520    4.6741   -4.7025 C.ar    1  UNL1       -0.0199
     12 C           5.6884    4.7741   -5.6993 C.ar    1  UNL1        0.1169
     13 O           5.3079    5.9834   -6.2007 O.3     1  UNL1       -0.5068
     14 C           5.0787    3.6401   -6.2250 C.ar    1  UNL1       -0.0199
     15 C           5.4424    2.3774   -5.7599 C.ar    1  UNL1       -0.0529
     16 N           8.4172    0.8640   -4.3008 N.am    1  UNL1       -0.2830
     17 C           9.2676    0.6216   -3.1194 C.3     1  UNL1        0.0156
     18 C           8.6235    0.3549   -1.8340 C.3     1  UNL1       -0.0400
     19 C           9.2611    0.0893   -0.5194 C.3     1  UNL1       -0.0639
     20 C           9.0462    1.0585   -5.5744 C.2     1  UNL1        0.2574
     21 O           8.3646    1.1725   -6.5998 O.2     1  UNL1       -0.2716
     22 C          10.6710    1.0818   -5.6458 C.3     1  UNL1        0.1924
     23 O          11.2184    2.1783   -4.8928 O.3     1  UNL1       -0.3711
     24 C          11.1933   -0.2819   -5.1434 C.ar    1  UNL1       -0.0027
     25 C          10.6707   -1.4592   -5.7301 C.ar    1  UNL1       -0.0550
     26 C          10.9751   -2.7135   -5.2244 C.ar    1  UNL1       -0.0614
     27 C          11.7666   -2.8151   -4.0873 C.ar    1  UNL1       -0.0617
     28 C          12.2730   -1.6683   -3.4732 C.ar    1  UNL1       -0.0614
     29 C          12.0365   -0.4088   -4.0248 C.ar    1  UNL1       -0.0550
     30 C          11.1819    1.4008   -7.0615 C.ar    1  UNL1       -0.0027
     31 C          11.7619    0.4351   -7.9046 C.ar    1  UNL1       -0.0550
     32 C          12.3060    0.7689   -9.1354 C.ar    1  UNL1       -0.0614
     33 C          12.2424    2.0803   -9.5763 C.ar    1  UNL1       -0.0617
     34 C          11.6672    3.0614   -8.7717 C.ar    1  UNL1       -0.0614
     35 C          11.1392    2.7268   -7.5270 C.ar    1  UNL1       -0.0550
     36 H           0.5191   -0.2443    1.1477 H       1  UNL1        0.0230
     37 H           0.4842   -0.8087   -0.5409 H       1  UNL1        0.0230
     38 H           0.4847    0.9296   -0.1915 H       1  UNL1        0.0230
     39 H           2.7835   -0.9956    0.4137 H       1  UNL1        0.0263
     40 H           2.7856    0.7329    0.7580 H       1  UNL1        0.0263
     41 H           2.3756    1.2303   -1.6805 H       1  UNL1        0.0280
     42 H           2.3623   -0.5177   -2.0295 H       1  UNL1        0.0280
     43 H           4.6328   -0.6905   -1.1311 H       1  UNL1        0.0462
     44 H           4.6398    1.0533   -0.8373 H       1  UNL1        0.0462
     45 H           4.0423    0.8096   -3.6107 H       1  UNL1        0.1487
     46 H           6.5777    0.1225   -4.9961 H       1  UNL1        0.0648
     47 H           7.7750    3.3316   -3.4617 H       1  UNL1        0.0622
     48 H           7.1448    5.5481   -4.2913 H       1  UNL1        0.0654
     49 H           5.8462    6.6741   -5.7819 H       1  UNL1        0.2921
     50 H           4.3364    3.7415   -7.0111 H       1  UNL1        0.0654
     51 H           4.9941    1.4964   -6.2139 H       1  UNL1        0.0622
     52 H           9.8708    1.4981   -2.9366 H       1  UNL1        0.0465
     53 H           9.8250   -0.2795   -3.3015 H       1  UNL1        0.0465
     54 H           8.1063   -0.5918   -2.0489 H       1  UNL1        0.0278
     55 H           8.0901    1.2995   -1.6636 H       1  UNL1        0.0278
     56 H           9.8454   -0.8264   -0.5568 H       1  UNL1        0.0230
     57 H           8.4350   -0.0554    0.1951 H       1  UNL1        0.0230
     58 H           9.8436    0.9492   -0.2009 H       1  UNL1        0.0230
     59 H          11.0658    2.0537   -3.9565 H       1  UNL1        0.2116
     60 H          10.0230   -1.3961   -6.6071 H       1  UNL1        0.0621
     61 H          10.5678   -3.5977   -5.7061 H       1  UNL1        0.0618
     62 H          11.9806   -3.7944   -3.6716 H       1  UNL1        0.0618
     63 H          12.8213   -1.7519   -2.5388 H       1  UNL1        0.0618
     64 H          12.4079    0.4670   -3.4977 H       1  UNL1        0.0621
     65 H          11.8349   -0.6107   -7.6356 H       1  UNL1        0.0621
     66 H          12.7830   -0.0068   -9.7263 H       1  UNL1        0.0618
     67 H          12.6428    2.3332  -10.5507 H       1  UNL1        0.0618
     68 H          11.6376    4.0933   -9.1047 H       1  UNL1        0.0618
     69 H          10.7125    3.5100   -6.9011 H       1  UNL1        0.0621
@<TRIPOS>BOND
     1     1     2    1
     2     2     3    1
     3     3     4    1
     4     4     5    1
     5     5     6   am
     6     6     7    2
     7     6     8    1
     8     8     9    1
     9     9    10   ar
    10    10    11   ar
    11    11    12   ar
    12    12    13    1
    13    12    14   ar
    14    14    15   ar
    15     9    15   ar
    16     8    16    1
    17    16    17    1
    18    17    18    1
    19    18    19    1
    20    16    20   am
    21    20    21    2
    22    20    22    1
    23    22    23    1
    24    22    24    1
    25    24    25   ar
    26    25    26   ar
    27    26    27   ar
    28    27    28   ar
    29    28    29   ar
    30    24    29   ar
    31    22    30    1
    32    30    31   ar
    33    31    32   ar
    34    32    33   ar
    35    33    34   ar
    36    34    35   ar
    37    30    35   ar
    38     1    36    1
    39     1    37    1
    40     1    38    1
    41     2    39    1
    42     2    40    1
    43     3    41    1
    44     3    42    1
    45     4    43    1
    46     4    44    1
    47     5    45    1
    48     8    46    1
    49    10    47    1
    50    11    48    1
    51    13    49    1
    52    14    50    1
    53    15    51    1
    54    17    52    1
    55    17    53    1
    56    18    54    1
    57    18    55    1
    58    19    56    1
    59    19    57    1
    60    19    58    1
    61    23    59    1
    62    25    60    1
    63    26    61    1
    64    27    62    1
    65    28    63    1
    66    29    64    1
    67    31    65    1
    68    32    66    1
    69    33    67    1
    70    34    68    1
    71    35    69    1
