REMARK  10 active torsions:
REMARK  status: ('A' for Active; 'I' for Inactive)
REMARK    1  A    between atoms: O_2  and  C_3 
REMARK    2  A    between atoms: C_3  and  C_5 
REMARK    3  A    between atoms: C_5  and  C_6 
REMARK    4  A    between atoms: C_5  and  N_12 
REMARK    5  A    between atoms: C_6  and  C_7 
REMARK       I    between atoms: N_12  and  C_13 
REMARK    6  A    between atoms: C_13  and  C_15 
REMARK    7  A    between atoms: C_15  and  O_16 
REMARK    8  A    between atoms: O_16  and  C_17 
REMARK    9  A    between atoms: C_19  and  O_20 
REMARK   10  A    between atoms: C_26  and  C_27 
ROOT
ATOM      1  C   UNL d   1       9.220  -3.001   4.723  0.00  0.00     0.074 A 
ATOM      2  C   UNL d   1       8.884  -4.276   5.177  0.00  0.00     0.074 A 
ATOM      3  C   UNL d   1       9.704  -4.922   6.115  0.00  0.00     0.085 A 
ATOM      4  C   UNL d   1      10.842  -4.288   6.634  0.00  0.00     0.077 A 
ATOM      5  C   UNL d   1      11.153  -2.997   6.200  0.00  0.00     0.088 A 
ATOM      6  C   UNL d   1      10.367  -2.378   5.221  0.00  0.00     0.074 A 
ATOM      7  O   UNL d   1      12.255  -2.284   6.596  0.00  0.00    -0.349 OA
ATOM      8  C   UNL d   1      12.899  -2.771   7.777  0.00  0.00     0.193 C 
ATOM      9  C   UNL d   1      13.106  -4.280   7.804  0.00  0.00     0.118 C 
ATOM     10  C   UNL d   1      11.788  -4.974   7.556  0.00  0.00     0.175 C 
ATOM     11  O   UNL d   1      11.555  -6.071   8.056  0.00  0.00    -0.291 OA
ENDROOT
BRANCH   1  12
ATOM     12  O   UNL d   1       8.571  -2.326   3.727  0.00  0.00    -0.342 OA
BRANCH  12  13
ATOM     13  C   UNL d   1       7.143  -2.377   3.697  0.00  0.00     0.278 C 
BRANCH  13  14
ATOM     14  C   UNL d   1       6.651  -1.604   2.454  0.00  0.00     0.242 C 
ATOM     15  N   UNL d   1       5.280  -1.437   2.325  0.00  0.00    -0.345 N 
ATOM     16  H   UNL d   1       4.639  -1.906   2.962  0.00  0.00     0.163 HD
ATOM     17  O   UNL d   1       7.412  -1.128   1.611  0.00  0.00    -0.271 OA
BRANCH  15  18
ATOM     18  C   UNL d   1       4.685  -0.711   1.179  0.00  0.00     0.190 C 
BRANCH  18  19
ATOM     19  C   UNL d   1       3.128  -0.788   1.254  0.00  0.00     0.281 C 
ATOM     20  O   UNL d   1       2.514  -1.364   2.149  0.00  0.00    -0.263 OA
BRANCH  19  21
ATOM     21  O   UNL d   1       2.533  -0.162   0.201  0.00  0.00    -0.325 OA
ATOM     22  C   UNL d   1       1.097  -0.115   0.154  0.00  0.00     0.213 C 
ENDBRANCH  19  21
ENDBRANCH  18  19
BRANCH  18  23
ATOM     23  C   UNL d   1       5.175   0.754   1.141  0.00  0.00     0.093 C 
BRANCH  23  24
ATOM     24  C   UNL d   1       4.815   1.477  -0.105  0.00  0.00     0.028 A 
ATOM     25  C   UNL d   1       4.336   1.029  -1.316  0.00  0.00     0.114 A 
ATOM     26  N   UNL d   1       4.097   2.126  -2.095  0.00  0.00    -0.360 N 
ATOM     27  C   UNL d   1       4.507   3.232  -1.474  0.00  0.00     0.180 A 
ATOM     28  H   UNL d   1       3.687   2.094  -3.026  0.00  0.00     0.166 HD
ATOM     29  N   UNL d   1       4.925   2.854  -0.261  0.00  0.00    -0.354 N 
ATOM     30  H   UNL d   1       5.297   3.495   0.439  0.00  0.00     0.166 HD
ENDBRANCH  23  24
ENDBRANCH  18  23
ENDBRANCH  15  18
ENDBRANCH  13  14
ENDBRANCH  12  13
ENDBRANCH   1  12
BRANCH   3  31
ATOM     31  O   UNL d   1       9.401  -6.197   6.498  0.00  0.00    -0.360 OA
ATOM     32  H   UNL d   1       8.613  -6.537   6.052  0.00  0.00     0.217 HD
ENDBRANCH   3  31
BRANCH   9  33
ATOM     33  C   UNL d   1      14.176  -4.745   6.837  0.00  0.00    -0.042 A 
ATOM     34  C   UNL d   1      15.309  -5.422   7.306  0.00  0.00     0.011 A 
ATOM     35  C   UNL d   1      16.287  -5.861   6.409  0.00  0.00     0.040 A 
ATOM     36  C   UNL d   1      16.143  -5.624   5.043  0.00  0.00     0.102 A 
ATOM     37  C   UNL d   1      15.015  -4.963   4.569  0.00  0.00     0.102 A 
ATOM     38  O   UNL d   1      17.139  -6.073   4.218  0.00  0.00    -0.346 OA
ATOM     39  C   UNL d   1      14.051  -4.521   5.458  0.00  0.00     0.047 A 
ATOM     40  O   UNL d   1      14.774  -4.693   3.248  0.00  0.00    -0.346 OA
ATOM     41  C   UNL d   1      15.613  -5.481   2.405  0.00  0.00     0.202 C 
ATOM     42  C   UNL d   1      17.044  -5.480   2.917  0.00  0.00     0.202 C 
ENDBRANCH   9  33
TORSDOF 10
