REMARK  6 active torsions:
REMARK  status: ('A' for Active; 'I' for Inactive)
REMARK    1  A    between atoms: C_2  and  C_3 
REMARK    2  A    between atoms: C_6  and  C_7 
REMARK       I    between atoms: C_7  and  N_9 
REMARK    3  A    between atoms: N_9  and  N_10 
REMARK       I    between atoms: N_10  and  C_11 
REMARK    4  A    between atoms: C_11  and  C_13 
REMARK    5  A    between atoms: C_14  and  C_15 
REMARK    6  A    between atoms: C_18  and  N_19 
ROOT
ATOM      1  N   UNL d   1       4.433  -3.698   6.835  0.00  0.00    -0.264 N 
ATOM      2  C   UNL d   1       4.816  -3.108   8.029  0.00  0.00     0.259 C 
ATOM      3  O   UNL d   1       4.919  -1.887   8.161  0.00  0.00    -0.267 OA
ATOM      4  H   UNL d   1       4.344  -4.700   6.677  0.00  0.00     0.190 HD
ENDROOT
BRANCH   1   5
ATOM      5  N   UNL d   1       4.107  -2.859   5.729  0.00  0.00    -0.263 N 
ATOM      6  C   UNL d   1       3.703  -3.411   4.517  0.00  0.00     0.270 C 
ATOM      7  O   UNL d   1       3.591  -4.633   4.368  0.00  0.00    -0.266 OA
ATOM      8  H   UNL d   1       4.236  -1.865   5.895  0.00  0.00     0.190 HD
BRANCH   6   9
ATOM      9  C   UNL d   1       3.431  -2.480   3.357  0.00  0.00     0.033 A 
ATOM     10  C   UNL d   1       3.089  -3.024   2.104  0.00  0.00     0.017 A 
ATOM     11  C   UNL d   1       2.926  -2.206   0.974  0.00  0.00     0.008 A 
ATOM     12  C   UNL d   1       2.995  -0.814   1.096  0.00  0.00    -0.059 A 
ATOM     13  C   UNL d   1       3.329  -0.265   2.338  0.00  0.00     0.008 A 
ATOM     14  C   UNL d   1       3.541  -1.087   3.456  0.00  0.00     0.017 A 
BRANCH  12  15
ATOM     15  C   UNL d   1       2.535   0.080  -0.032  0.00  0.00     0.034 C 
ATOM     16  C   UNL d   1       1.009   0.111  -0.048  0.00  0.00     0.010 C 
ENDBRANCH  12  15
ENDBRANCH   6   9
ENDBRANCH   1   5
BRANCH   2  17
ATOM     17  C   UNL d   1       5.110  -4.056   9.155  0.00  0.00     0.076 C 
ATOM     18  C   UNL d   1       5.481  -3.612  10.375  0.00  0.00     0.017 C 
BRANCH  18  19
ATOM     19  C   UNL d   1       5.896  -4.465  11.516  0.00  0.00    -0.036 A 
ATOM     20  C   UNL d   1       5.634  -4.080  12.845  0.00  0.00     0.014 A 
ATOM     21  C   UNL d   1       6.199  -4.777  13.929  0.00  0.00     0.037 A 
ATOM     22  C   UNL d   1       6.974  -5.918  13.689  0.00  0.00     0.102 A 
ATOM     23  C   UNL d   1       7.232  -6.325  12.377  0.00  0.00     0.037 A 
ATOM     24  C   UNL d   1       6.698  -5.597  11.304  0.00  0.00     0.014 A 
BRANCH  22  25
ATOM     25  N   UNL d   1       7.480  -6.720  14.813  0.00  0.00    -0.116 N 
ATOM     26  O   UNL d   1       7.215  -6.338  15.962  0.00  0.00    -0.532 OA
ATOM     27  O   UNL d   1       8.122  -7.747  14.546  0.00  0.00    -0.532 OA
ENDBRANCH  22  25
ENDBRANCH  18  19
ENDBRANCH   2  17
TORSDOF 6
