@<TRIPOS>MOLECULE
*****
 38 40 0 0 0
SMALL
GASTEIGER

@<TRIPOS>ATOM
      1 C           2.5278    1.0713    0.0082 C.3     1  UNL1       -0.0397
      2 C           1.2225    0.3313   -0.0004 C.ar    1  UNL1       -0.0495
      3 C           0.0007    1.0155   -0.0072 C.ar    1  UNL1       -0.0559
      4 C          -1.2080    0.3101   -0.0043 C.ar    1  UNL1       -0.0495
      5 C          -2.5256    1.0322   -0.0053 C.3     1  UNL1       -0.0397
      6 C          -1.1782   -1.0957   -0.0035 C.ar    1  UNL1       -0.0467
      7 C           0.0391   -1.8017   -0.0017 C.ar    1  UNL1        0.0372
      8 C           0.0067   -3.3021   -0.0066 C.2     1  UNL1        0.2444
      9 O          -1.0748   -3.8892   -0.0110 O.2     1  UNL1       -0.2702
     10 N           1.2048   -3.9876   -0.0076 N.am    1  UNL1       -0.3057
     11 C           1.2389   -5.4354   -0.0145 C.3     1  UNL1        0.0566
     12 C           2.6456   -5.9673   -0.0133 C.ar    1  UNL1        0.0875
     13 N           3.7296   -5.1671   -0.0165 N.ar    1  UNL1       -0.1761
     14 N           4.7645   -6.0357   -0.0177 N.ar    1  UNL1       -0.2767
     15 C           4.4004   -7.3553   -0.0196 C.ar    1  UNL1        0.0661
     16 C           5.1565   -8.5343   -0.0270 C.ar    1  UNL1       -0.0363
     17 C           4.4516   -9.7433   -0.0251 C.ar    1  UNL1       -0.0597
     18 C           3.0569   -9.7641   -0.0141 C.ar    1  UNL1       -0.0610
     19 C           2.3219   -8.5722   -0.0070 C.ar    1  UNL1       -0.0508
     20 C           3.0116   -7.3457   -0.0119 C.ar    1  UNL1        0.0242
     21 C           1.2329   -1.0730    0.0037 C.ar    1  UNL1       -0.0467
     22 H           2.3790    2.1552   -0.0079 H       1  UNL1        0.0278
     23 H           3.1193    0.7976   -0.8717 H       1  UNL1        0.0278
     24 H           3.0921    0.8199    0.9122 H       1  UNL1        0.0278
     25 H          -0.0072    2.1045   -0.0138 H       1  UNL1        0.0623
     26 H          -2.3945    2.1200    0.0115 H       1  UNL1        0.0278
     27 H          -3.1098    0.7547    0.8783 H       1  UNL1        0.0278
     28 H          -3.0942    0.7781   -0.9056 H       1  UNL1        0.0278
     29 H          -2.1197   -1.6443   -0.0050 H       1  UNL1        0.0628
     30 H           2.1112   -3.5418   -0.0081 H       1  UNL1        0.1494
     31 H           0.7086   -5.7871   -0.9063 H       1  UNL1        0.0528
     32 H           0.7036   -5.7955    0.8708 H       1  UNL1        0.0528
     33 H           5.7085   -5.6663   -0.0174 H       1  UNL1        0.1889
     34 H           6.2418   -8.5235   -0.0351 H       1  UNL1        0.0639
     35 H           4.9995  -10.6839   -0.0321 H       1  UNL1        0.0618
     36 H           2.5312  -10.7163   -0.0118 H       1  UNL1        0.0618
     37 H           1.2363   -8.6003    0.0016 H       1  UNL1        0.0625
     38 H           2.1950   -1.5722    0.0111 H       1  UNL1        0.0628
@<TRIPOS>BOND
     1     1     2    1
     2     2     3   ar
     3     3     4   ar
     4     4     5    1
     5     4     6   ar
     6     6     7   ar
     7     7     8    1
     8     8     9    2
     9     8    10   am
    10    10    11    1
    11    11    12    1
    12    12    13   ar
    13    13    14   ar
    14    14    15   ar
    15    15    16   ar
    16    16    17   ar
    17    17    18   ar
    18    18    19   ar
    19    19    20   ar
    20    12    20   ar
    21    15    20   ar
    22     7    21   ar
    23     2    21   ar
    24     1    22    1
    25     1    23    1
    26     1    24    1
    27     3    25    1
    28     5    26    1
    29     5    27    1
    30     5    28    1
    31     6    29    1
    32    10    30    1
    33    11    31    1
    34    11    32    1
    35    14    33    1
    36    16    34    1
    37    17    35    1
    38    18    36    1
    39    19    37    1
    40    21    38    1
