@<TRIPOS>MOLECULE
*****
 56 59 0 0 0
SMALL
GASTEIGER

@<TRIPOS>ATOM
      1 O           7.0206   -1.4874    2.6702 O.2     1  UNL1       -0.2758
      2 C           6.4570   -2.4345    2.1205 C.2     1  UNL1        0.2131
      3 C           4.9855   -2.7143    2.2172 C.3     1  UNL1        0.0262
      4 C           4.2264   -1.7161    3.0710 C.3     1  UNL1       -0.0187
      5 C           2.7263   -2.0505    3.1557 C.3     1  UNL1        0.0700
      6 N           2.4258   -3.4845    3.2184 N.3     1  UNL1       -0.2422
      7 N           2.3832   -3.9630    4.5777 N.3     1  UNL1       -0.2341
      8 C           2.4924   -2.8570    5.5493 C.3     1  UNL1        0.1456
      9 C           1.5771   -3.0912    6.7564 C.2     1  UNL1        0.2457
     10 O           0.9630   -4.1481    6.9120 O.2     1  UNL1       -0.2728
     11 N           1.5617   -2.0307    7.6670 N.am    1  UNL1       -0.2835
     12 C           0.8297   -2.0785    8.8686 C.ar    1  UNL1        0.0335
     13 C           0.1810   -0.9384    9.3506 C.ar    1  UNL1       -0.0405
     14 C          -0.4987   -0.9923   10.5743 C.ar    1  UNL1       -0.0600
     15 C          -0.5500   -2.1841   11.2993 C.ar    1  UNL1       -0.0616
     16 C           0.1006   -3.3158   10.8205 C.ar    1  UNL1       -0.0600
     17 C           0.7871   -3.2594    9.6121 C.ar    1  UNL1       -0.0405
     18 S           2.0780   -1.3379    4.6747 S.3     1  UNL1       -0.1116
     19 N           7.1743   -3.3419    1.3951 N.am    1  UNL1       -0.3150
     20 C           6.6191   -4.5037    0.7352 C.3     1  UNL1        0.0155
     21 C           7.6864   -5.2965    0.0257 C.3     1  UNL1       -0.0092
     22 C           7.2183   -6.5273   -0.6767 C.2     1  UNL1        0.0092
     23 C           8.0812   -7.3028   -1.3321 C.ar    1  UNL1        0.0523
     24 C           9.4854   -7.1950   -1.5156 C.ar    1  UNL1       -0.0298
     25 C          10.0799   -8.0560   -2.3487 C.ar    1  UNL1        0.0419
     26 CL         11.7346   -7.8320   -2.7568 Cl      1  UNL1       -0.0835
     27 C           9.3338   -9.1513   -2.9559 C.ar    1  UNL1       -0.0372
     28 C           8.0019   -9.3269   -2.8085 C.ar    1  UNL1        0.0112
     29 C           7.2801   -8.3576   -1.9610 C.ar    1  UNL1        0.2086
     30 N           6.0404   -8.2571   -1.6609 N.2     1  UNL1       -0.2369
     31 C           5.8186   -7.0676   -0.7894 C.3     1  UNL1        0.1661
     32 H           4.9154   -3.7066    2.6770 H       1  UNL1        0.0359
     33 H           4.5506   -2.7444    1.2122 H       1  UNL1        0.0359
     34 H           4.3399   -0.7116    2.6417 H       1  UNL1        0.0293
     35 H           4.7031   -1.6797    4.0595 H       1  UNL1        0.0293
     36 H           2.2100   -1.6179    2.2930 H       1  UNL1        0.0589
     37 H           2.9784   -4.0545    2.5860 H       1  UNL1        0.1418
     38 H           3.0118   -4.7286    4.8220 H       1  UNL1        0.1424
     39 H           3.5285   -2.8051    5.9044 H       1  UNL1        0.0686
     40 H           1.8967   -1.1270    7.3485 H       1  UNL1        0.1549
     41 H           0.1358   -0.0224    8.7668 H       1  UNL1        0.0636
     42 H          -0.9962   -0.1081   10.9662 H       1  UNL1        0.0618
     43 H          -1.0999   -2.2359   12.2351 H       1  UNL1        0.0618
     44 H           0.0878   -4.2444   11.3828 H       1  UNL1        0.0618
     45 H           1.3129   -4.1458    9.2703 H       1  UNL1        0.0636
     46 H           8.1711   -3.1441    1.3715 H       1  UNL1        0.1487
     47 H           5.8620   -4.1635    0.0210 H       1  UNL1        0.0465
     48 H           6.1289   -5.1316    1.4866 H       1  UNL1        0.0465
     49 H           8.4538   -5.5861    0.7566 H       1  UNL1        0.0327
     50 H           8.1839   -4.6407   -0.7032 H       1  UNL1        0.0327
     51 H          10.0316   -6.3976   -1.0218 H       1  UNL1        0.0640
     52 H           9.9221   -9.8608   -3.5349 H       1  UNL1        0.0634
     53 H           7.4898  -10.1526   -3.2878 H       1  UNL1        0.0684
     54 H           5.3375   -8.9209   -1.9857 H       1  UNL1        0.4459
     55 H           5.4201   -7.4059    0.1713 H       1  UNL1        0.1077
     56 H           5.1232   -6.3878   -1.2913 H       1  UNL1        0.1077
@<TRIPOS>UNITY_ATOM_ATTR
30 1
charge 1
@<TRIPOS>BOND
     1     1     2    2
     2     2     3    1
     3     3     4    1
     4     5     6    1
     5     6     7    1
     6     7     8    1
     7     9    10    2
     8     9    11   am
     9    11    12    1
    10    12    13   ar
    11    13    14   ar
    12    14    15   ar
    13    15    16   ar
    14    16    17   ar
    15    12    17   ar
    16     8    18    1
    17     5    18    1
    18     2    19   am
    19    19    20    1
    20    20    21    1
    21    21    22    1
    22    22    23    2
    23    23    24   ar
    24    24    25   ar
    25    25    26    1
    26    25    27   ar
    27    27    28   ar
    28    28    29   ar
    29    23    29   ar
    30    29    30    2
    31    30    31    1
    32    22    31    1
    33     8     9    1
    34     5     4    1
    35     3    32    1
    36     3    33    1
    37     4    34    1
    38     4    35    1
    39     5    36    1
    40     6    37    1
    41     7    38    1
    42     8    39    1
    43    11    40    1
    44    13    41    1
    45    14    42    1
    46    15    43    1
    47    16    44    1
    48    17    45    1
    49    19    46    1
    50    20    47    1
    51    20    48    1
    52    21    49    1
    53    21    50    1
    54    24    51    1
    55    27    52    1
    56    28    53    1
    57    30    54    1
    58    31    55    1
    59    31    56    1
