@<TRIPOS>MOLECULE
*****
 60 63 0 0 0
SMALL
GASTEIGER

@<TRIPOS>ATOM
      1 C           1.1074   -0.0211   -0.0652 C.3     1  UNL1        0.0788
      2 O           2.5305    0.0045   -0.1385 O.3     1  UNL1       -0.4951
      3 C           3.1890   -1.1760    0.1231 C.ar    1  UNL1        0.1211
      4 C           2.8413   -2.3783   -0.6353 C.ar    1  UNL1       -0.0137
      5 C           3.5090   -3.5476   -0.5287 C.ar    1  UNL1        0.0133
      6 C           4.6547   -3.5960    0.3955 C.ar    1  UNL1        0.2088
      7 C           4.9915   -2.3674    1.1338 C.ar    1  UNL1        0.0544
      8 C           4.2379   -1.1703    0.9607 C.ar    1  UNL1       -0.0064
      9 C           6.0578   -2.6862    1.8756 C.2     1  UNL1        0.0092
     10 C           6.7837   -1.7678    2.8076 C.3     1  UNL1       -0.0092
     11 C           7.9457   -2.4479    3.5149 C.3     1  UNL1        0.0155
     12 N           8.6361   -1.5972    4.4342 N.am    1  UNL1       -0.3150
     13 C           9.6999   -2.1242    5.1350 C.2     1  UNL1        0.2131
     14 O          10.0798   -3.2866    4.9933 O.2     1  UNL1       -0.2758
     15 C          10.3461   -1.1312    6.0414 C.3     1  UNL1        0.0262
     16 C          11.5549   -1.6993    6.7889 C.3     1  UNL1       -0.0187
     17 C          12.2558   -0.6877    7.7049 C.3     1  UNL1        0.0700
     18 N          11.7737   -0.7668    9.0988 N.3     1  UNL1       -0.2422
     19 N          11.7921    0.5640    9.7334 N.3     1  UNL1       -0.2341
     20 C          12.2364    1.6127    8.7969 C.3     1  UNL1        0.1456
     21 C          13.7449    1.8873    8.9240 C.2     1  UNL1        0.2457
     22 O          14.5650    1.4484    8.1115 O.2     1  UNL1       -0.2728
     23 N          14.1140    2.6358   10.0355 N.am    1  UNL1       -0.2835
     24 C          15.4764    2.9392   10.2304 C.ar    1  UNL1        0.0335
     25 C          16.2635    3.3495    9.1472 C.ar    1  UNL1       -0.0405
     26 C          17.6432    3.4499    9.2727 C.ar    1  UNL1       -0.0600
     27 C          18.2320    3.2448   10.5144 C.ar    1  UNL1       -0.0616
     28 C          17.4359    2.9605   11.6272 C.ar    1  UNL1       -0.0600
     29 C          16.0573    2.7750   11.4841 C.ar    1  UNL1       -0.0405
     30 S          11.9555    1.0115    7.1455 S.3     1  UNL1       -0.1116
     31 C           6.4509   -4.1228    1.6644 C.3     1  UNL1        0.1661
     32 N           5.4475   -4.5625    0.6779 N.2     1  UNL1       -0.2369
     33 H           0.7520    1.0111   -0.1538 H       1  UNL1        0.0660
     34 H           0.7595   -0.4196    0.8934 H       1  UNL1        0.0660
     35 H           0.6822   -0.5857   -0.8988 H       1  UNL1        0.0660
     36 H           2.0151   -2.3030   -1.3373 H       1  UNL1        0.0656
     37 H           3.2246   -4.4138   -1.1148 H       1  UNL1        0.0684
     38 H           4.5303   -0.2674    1.4860 H       1  UNL1        0.0662
     39 H           6.0786   -1.3867    3.5568 H       1  UNL1        0.0327
     40 H           7.1576   -0.9027    2.2454 H       1  UNL1        0.0327
     41 H           8.6808   -2.8121    2.7863 H       1  UNL1        0.0465
     42 H           7.5923   -3.3132    4.0886 H       1  UNL1        0.0465
     43 H           8.3883   -0.6183    4.5508 H       1  UNL1        0.1487
     44 H           9.6020   -0.7483    6.7502 H       1  UNL1        0.0359
     45 H          10.6573   -0.3167    5.3739 H       1  UNL1        0.0359
     46 H          12.2870   -2.0583    6.0517 H       1  UNL1        0.0293
     47 H          11.2613   -2.5954    7.3533 H       1  UNL1        0.0293
     48 H          13.3338   -0.9010    7.7111 H       1  UNL1        0.0589
     49 H          12.3482   -1.4473    9.6101 H       1  UNL1        0.1418
     50 H          12.3078    0.5898   10.6125 H       1  UNL1        0.1424
     51 H          11.6665    2.5334    8.9409 H       1  UNL1        0.0686
     52 H          13.4904    2.6620   10.8313 H       1  UNL1        0.1549
     53 H          15.8060    3.5703    8.1850 H       1  UNL1        0.0636
     54 H          18.2474    3.6783    8.3994 H       1  UNL1        0.0618
     55 H          19.3122    3.3094   10.6126 H       1  UNL1        0.0618
     56 H          17.9011    2.8576   12.6036 H       1  UNL1        0.0618
     57 H          15.4782    2.4320   12.3357 H       1  UNL1        0.0636
     58 H           6.3375   -4.7248    2.5700 H       1  UNL1        0.1077
     59 H           7.4464   -4.2283    1.2248 H       1  UNL1        0.1077
     60 H           5.3806   -5.4924    0.2722 H       1  UNL1        0.4459
@<TRIPOS>UNITY_ATOM_ATTR
32 1
charge 1
@<TRIPOS>BOND
     1     1     2    1
     2     2     3    1
     3     3     4   ar
     4     4     5   ar
     5     5     6   ar
     6     6     7   ar
     7     7     8   ar
     8     3     8   ar
     9     7     9    2
    10     9    10    1
    11    10    11    1
    12    11    12    1
    13    12    13   am
    14    13    14    2
    15    13    15    1
    16    15    16    1
    17    16    17    1
    18    17    18    1
    19    18    19    1
    20    19    20    1
    21    20    21    1
    22    21    22    2
    23    21    23   am
    24    23    24    1
    25    24    25   ar
    26    25    26   ar
    27    26    27   ar
    28    27    28   ar
    29    28    29   ar
    30    24    29   ar
    31    20    30    1
    32    17    30    1
    33     9    31    1
    34    31    32    1
    35     6    32    2
    36     1    33    1
    37     1    34    1
    38     1    35    1
    39     4    36    1
    40     5    37    1
    41     8    38    1
    42    10    39    1
    43    10    40    1
    44    11    41    1
    45    11    42    1
    46    12    43    1
    47    15    44    1
    48    15    45    1
    49    16    46    1
    50    16    47    1
    51    17    48    1
    52    18    49    1
    53    19    50    1
    54    20    51    1
    55    23    52    1
    56    25    53    1
    57    26    54    1
    58    27    55    1
    59    28    56    1
    60    29    57    1
    61    31    58    1
    62    31    59    1
    63    32    60    1
