@<TRIPOS>MOLECULE
*****
 53 56 0 0 0
SMALL
GASTEIGER

@<TRIPOS>ATOM
      1 O           3.2042   -0.6902    0.1091 O.2     1  UNL1       -0.2714
      2 C           2.0478   -0.2921    0.0584 C.2     1  UNL1        0.2582
      3 N           0.9773   -1.1414    0.0839 N.am    1  UNL1       -0.2793
      4 C          -0.3334   -0.6625    0.0271 C.ar    1  UNL1        0.0822
      5 C          -1.3954   -1.5614   -0.0317 C.ar    1  UNL1        0.0403
      6 C          -2.7067   -1.0626   -0.0459 C.ar    1  UNL1        0.2751
      7 N          -3.8367   -1.9985   -0.0980 N.pl3   1  UNL1        0.0797
      8 O          -4.9773   -1.5231   -0.1014 O.2     1  UNL1        0.0414
      9 O          -3.5704   -3.2087   -0.1490 O.co2   1  UNL1       -0.5760
     10 C          -2.9530    0.3183   -0.0069 C.ar    1  UNL1        0.0192
     11 C          -1.8781    1.2071    0.0437 C.ar    1  UNL1       -0.0116
     12 C          -0.5736    0.7170    0.0543 C.ar    1  UNL1        0.1431
     13 O           0.4268    1.6480    0.1285 O.3     1  UNL1       -0.4775
     14 C           1.7102    1.1649   -0.2640 C.3     1  UNL1        0.1806
     15 C           1.8471    1.4027   -1.7787 C.3     1  UNL1        0.0332
     16 C           3.2288    1.0460   -2.3378 C.3     1  UNL1       -0.0279
     17 N           3.3508    1.3877   -3.8272 N.4     1  UNL1        0.2376
     18 C           2.7648    2.7629   -4.1927 C.3     1  UNL1       -0.0158
     19 C           2.9799    3.1196   -5.6714 C.3     1  UNL1        0.0525
     20 N           4.3856    3.0119   -6.0497 N.pl3   1  UNL1       -0.3198
     21 C           5.1986    4.1232   -6.2071 C.ar    1  UNL1        0.0304
     22 C           6.0136    4.2312   -7.3483 C.ar    1  UNL1       -0.0342
     23 C           6.8822    5.3181   -7.5529 C.ar    1  UNL1        0.0173
     24 C           6.9042    6.3661   -6.6319 C.ar    1  UNL1        0.2733
     25 N           7.7172    7.5660   -6.8973 N.pl3   1  UNL1        0.0796
     26 O           8.3824    7.5917   -7.9414 O.2     1  UNL1        0.0414
     27 O           7.6707    8.4851   -6.0667 O.co2   1  UNL1       -0.5760
     28 C           6.1035    6.2944   -5.4879 C.ar    1  UNL1        0.0173
     29 C           5.2554    5.1848   -5.2897 C.ar    1  UNL1       -0.0342
     30 C           4.9733    1.6834   -5.8108 C.3     1  UNL1        0.0525
     31 C           4.8270    1.2714   -4.3174 C.3     1  UNL1       -0.0158
     32 H           1.1697   -2.1291    0.2094 H       1  UNL1        0.1550
     33 H          -1.2076   -2.6324   -0.0663 H       1  UNL1        0.0705
     34 H          -3.9679    0.7133   -0.0060 H       1  UNL1        0.0686
     35 H          -2.0613    2.2791    0.0811 H       1  UNL1        0.0657
     36 H           2.4395    1.7860    0.2704 H       1  UNL1        0.0833
     37 H           1.6240    2.4641   -1.9353 H       1  UNL1        0.0358
     38 H           1.0709    0.8483   -2.3229 H       1  UNL1        0.0358
     39 H           3.4137   -0.0311   -2.2735 H       1  UNL1        0.0816
     40 H           4.0163    1.5893   -1.8070 H       1  UNL1        0.0816
     41 H           2.8169    0.6737   -4.3417 H       1  UNL1        0.2034
     42 H           3.2369    3.4872   -3.5241 H       1  UNL1        0.0830
     43 H           1.6875    2.7156   -4.0082 H       1  UNL1        0.0830
     44 H           2.5609    4.1040   -5.9029 H       1  UNL1        0.0516
     45 H           2.4199    2.3955   -6.2796 H       1  UNL1        0.0516
     46 H           5.9384    3.4828   -8.1360 H       1  UNL1        0.0638
     47 H           7.5159    5.3362   -8.4384 H       1  UNL1        0.0686
     48 H           6.1261    7.0924   -4.7460 H       1  UNL1        0.0686
     49 H           4.6513    5.1793   -4.3885 H       1  UNL1        0.0638
     50 H           6.0208    1.6284   -6.1271 H       1  UNL1        0.0516
     51 H           4.4203    0.9583   -6.4223 H       1  UNL1        0.0516
     52 H           5.4233    1.9242   -3.6719 H       1  UNL1        0.0830
     53 H           5.1312    0.2280   -4.1723 H       1  UNL1        0.0830
@<TRIPOS>UNITY_ATOM_ATTR
7 1
charge 1
9 1
charge -1
17 1
charge 1
25 1
charge 1
27 1
charge -1
@<TRIPOS>BOND
     1     1     2    2
     2     2     3   am
     3     3     4    1
     4     4     5   ar
     5     5     6   ar
     6     6     7    1
     7     7     8    2
     8     7     9    1
     9     6    10   ar
    10    10    11   ar
    11    11    12   ar
    12     4    12   ar
    13    12    13    1
    14    13    14    1
    15     2    14    1
    16    14    15    1
    17    15    16    1
    18    16    17    1
    19    17    18    1
    20    18    19    1
    21    19    20    1
    22    20    21    1
    23    21    22   ar
    24    22    23   ar
    25    23    24   ar
    26    24    25    1
    27    25    26    2
    28    25    27    1
    29    24    28   ar
    30    28    29   ar
    31    21    29   ar
    32    20    30    1
    33    30    31    1
    34    17    31    1
    35     3    32    1
    36     5    33    1
    37    10    34    1
    38    11    35    1
    39    14    36    1
    40    15    37    1
    41    15    38    1
    42    16    39    1
    43    16    40    1
    44    17    41    1
    45    18    42    1
    46    18    43    1
    47    19    44    1
    48    19    45    1
    49    22    46    1
    50    23    47    1
    51    28    48    1
    52    29    49    1
    53    30    50    1
    54    30    51    1
    55    31    52    1
    56    31    53    1
