@<TRIPOS>MOLECULE
*****
 59 62 0 0 0
SMALL
GASTEIGER

@<TRIPOS>ATOM
      1 C           0.6641    0.9119   -0.6902 C.3     1  UNL1        0.0788
      2 O           2.0001    0.6202   -0.2736 O.3     1  UNL1       -0.4946
      3 C           2.9681    1.3768   -0.8442 C.ar    1  UNL1        0.1284
      4 C           2.7821    2.7360   -0.7180 C.ar    1  UNL1       -0.0181
      5 C           3.6708    3.6206   -1.2578 C.ar    1  UNL1       -0.0399
      6 C           4.7652    3.1225   -1.9434 C.ar    1  UNL1        0.0416
      7 CL          5.7941    4.2515   -2.7214 Cl      1  UNL1       -0.0835
      8 C           5.0124    1.7370   -2.0195 C.ar    1  UNL1       -0.0317
      9 C           4.1202    0.8181   -1.4252 C.ar    1  UNL1        0.0400
     10 C           4.4113   -0.6776   -1.4668 C.3     1  UNL1       -0.0023
     11 N           3.4552   -1.6181   -0.7007 N.4     1  UNL1        0.2408
     12 C           3.4684   -1.3109    0.8360 C.3     1  UNL1       -0.0154
     13 C           2.2826   -1.9226    1.6161 C.3     1  UNL1        0.0525
     14 N           0.9813   -1.6857    0.9823 N.pl3   1  UNL1       -0.3179
     15 C          -0.0120   -0.9095    1.6396 C.ar    1  UNL1        0.0635
     16 C           0.2582    0.4326    2.1509 C.ar    1  UNL1       -0.0108
     17 C          -0.6894    1.4647    2.5614 C.ar    1  UNL1        0.1096
     18 N          -0.2783    2.7940    2.7403 N.pl3   1  UNL1       -0.3384
     19 C           1.0486    3.3331    2.5422 C.3     1  UNL1        0.0114
     20 C           1.1887    4.7845    2.9875 C.3     1  UNL1       -0.0142
     21 C           2.6126    5.2674    2.7172 C.3     1  UNL1        0.0456
     22 O           2.7863    6.5978    3.1707 O.3     1  UNL1       -0.3950
     23 C          -2.0594    1.1260    2.6594 C.ar    1  UNL1        0.3243
     24 N          -3.0896    2.0448    3.1610 N.pl3   1  UNL1        0.0839
     25 O          -4.2366    1.6515    3.3074 O.2     1  UNL1        0.0416
     26 O          -2.7249    3.2150    3.4404 O.co2   1  UNL1       -0.5759
     27 C          -2.4185   -0.1785    2.2360 C.ar    1  UNL1        0.2144
     28 N          -3.6135   -0.7799    2.1769 N.ar    1  UNL1       -0.0419
     29 O          -3.4099   -2.0345    1.6547 O.2     1  UNL1       -0.2413
     30 N          -2.0874   -2.2452    1.3203 N.ar    1  UNL1       -0.0468
     31 C          -1.4182   -1.1515    1.7124 C.ar    1  UNL1        0.1619
     32 C           0.9044   -2.2102   -0.4339 C.3     1  UNL1        0.0525
     33 C           2.0668   -1.7085   -1.3889 C.3     1  UNL1       -0.0154
     34 H           0.0427    0.0853   -0.3828 H       1  UNL1        0.0660
     35 H           0.5328    0.8891   -1.7676 H       1  UNL1        0.0660
     36 H           0.2668    1.7778   -0.1740 H       1  UNL1        0.0660
     37 H           1.9092    3.1012   -0.2118 H       1  UNL1        0.0655
     38 H           3.4570    4.6776   -1.1527 H       1  UNL1        0.0633
     39 H           5.9003    1.4053   -2.5588 H       1  UNL1        0.0638
     40 H           5.4112   -0.8841   -1.0554 H       1  UNL1        0.0868
     41 H           4.4234   -1.0286   -2.5092 H       1  UNL1        0.0868
     42 H           3.8372   -2.5648   -0.7928 H       1  UNL1        0.2038
     43 H           3.5209   -0.2355    1.0225 H       1  UNL1        0.0830
     44 H           4.4222   -1.6940    1.2134 H       1  UNL1        0.0830
     45 H           2.2859   -1.5688    2.6528 H       1  UNL1        0.0516
     46 H           2.4459   -3.0052    1.6533 H       1  UNL1        0.0516
     47 H           1.2923    0.7653    2.0714 H       1  UNL1        0.0657
     48 H          -0.9753    3.4538    3.1132 H       1  UNL1        0.1463
     49 H           1.2452    3.3220    1.4812 H       1  UNL1        0.0462
     50 H           1.7889    2.7138    3.0518 H       1  UNL1        0.0462
     51 H           0.9526    4.8884    4.0520 H       1  UNL1        0.0302
     52 H           0.4797    5.4333    2.4559 H       1  UNL1        0.0302
     53 H           2.8527    5.2325    1.6486 H       1  UNL1        0.0557
     54 H           3.3382    4.6371    3.2420 H       1  UNL1        0.0557
     55 H           2.1602    7.1717    2.6963 H       1  UNL1        0.2094
     56 H          -0.0650   -2.0013   -0.9051 H       1  UNL1        0.0516
     57 H           1.0078   -3.3001   -0.4129 H       1  UNL1        0.0516
     58 H           1.8598   -0.7589   -1.8839 H       1  UNL1        0.0830
     59 H           2.1792   -2.3463   -2.2768 H       1  UNL1        0.0830
@<TRIPOS>UNITY_ATOM_ATTR
11 1
charge 1
24 1
charge 1
26 1
charge -1
@<TRIPOS>BOND
     1     1     2    1
     2     2     3    1
     3     3     4   ar
     4     4     5   ar
     5     5     6   ar
     6     6     7    1
     7     6     8   ar
     8     8     9   ar
     9     3     9   ar
    10     9    10    1
    11    10    11    1
    12    11    12    1
    13    12    13    1
    14    13    14    1
    15    14    15    1
    16    15    16   ar
    17    16    17   ar
    18    17    18    1
    19    18    19    1
    20    19    20    1
    21    20    21    1
    22    21    22    1
    23    17    23   ar
    24    23    24    1
    25    24    25    2
    26    24    26    1
    27    23    27   ar
    28    27    28   ar
    29    28    29   ar
    30    29    30   ar
    31    30    31   ar
    32    15    31   ar
    33    27    31   ar
    34    14    32    1
    35    32    33    1
    36    11    33    1
    37     1    34    1
    38     1    35    1
    39     1    36    1
    40     4    37    1
    41     5    38    1
    42     8    39    1
    43    10    40    1
    44    10    41    1
    45    11    42    1
    46    12    43    1
    47    12    44    1
    48    13    45    1
    49    13    46    1
    50    16    47    1
    51    18    48    1
    52    19    49    1
    53    19    50    1
    54    20    51    1
    55    20    52    1
    56    21    53    1
    57    21    54    1
    58    22    55    1
    59    32    56    1
    60    32    57    1
    61    33    58    1
    62    33    59    1
