@<TRIPOS>MOLECULE
*****
 58 59 0 0 0
SMALL
GASTEIGER

@<TRIPOS>ATOM
      1 C           0.9334   -0.0165    0.0634 C.3     1  UNL1       -0.0416
      2 C           2.4488   -0.0183    0.0778 C.3     1  UNL1        0.0450
      3 O           2.9360    0.1288   -1.2564 O.3     1  UNL1       -0.3767
      4 C           4.3663    0.1147   -1.2803 C.3     1  UNL1        0.0817
      5 C           4.8690    0.2628   -2.7161 C.3     1  UNL1        0.1128
      6 O           6.2979    0.1716   -2.7211 O.3     1  UNL1       -0.4897
      7 C           6.9151    0.4153   -3.9183 C.ar    1  UNL1        0.1207
      8 C           8.0665   -0.3196   -4.1786 C.ar    1  UNL1       -0.0192
      9 C           8.8240   -0.0504   -5.3303 C.ar    1  UNL1       -0.0462
     10 C           8.4174    0.9115   -6.2889 C.ar    1  UNL1        0.0373
     11 C           9.2262    1.0255   -7.5590 C.2     1  UNL1        0.2495
     12 O          10.2041    0.2714   -7.6105 O.2     1  UNL1       -0.2698
     13 N           8.8667    1.9039   -8.6164 N.am    1  UNL1       -0.2627
     14 C           9.5304    2.0447   -9.8640 C.2     1  UNL1        0.1533
     15 S          10.8987    1.1787  -10.3440 S.2     1  UNL1       -0.0170
     16 N           8.9756    2.9929  -10.7473 N.am    1  UNL1       -0.2454
     17 N           9.6094    3.2120  -12.0481 N.am    1  UNL1       -0.2323
     18 C           9.1151    4.1518  -12.9494 C.2     1  UNL1        0.2667
     19 O           8.1130    4.8156  -12.6804 O.2     1  UNL1       -0.2705
     20 C           9.9022    4.2853  -14.2983 C.3     1  UNL1        0.1666
     21 O           9.3755    5.3470  -15.1101 O.3     1  UNL1       -0.4827
     22 C           9.8790    5.5222  -16.3752 C.ar    1  UNL1        0.1218
     23 C           9.9360    6.8411  -16.8470 C.ar    1  UNL1       -0.0156
     24 C          10.2957    7.1291  -18.1806 C.ar    1  UNL1       -0.0284
     25 C          10.1258    8.5180  -18.7359 C.3     1  UNL1       -0.0382
     26 C          10.7062    6.0827  -19.0207 C.ar    1  UNL1        0.0470
     27 CL         11.3275    6.4557  -20.6012 Cl      1  UNL1       -0.0830
     28 C          10.6141    4.7541  -18.5799 C.ar    1  UNL1       -0.0284
     29 C          10.8842    3.5840  -19.4846 C.3     1  UNL1       -0.0382
     30 C          10.1873    4.4875  -17.2569 C.ar    1  UNL1       -0.0156
     31 C           7.2736    1.6547   -6.0024 C.ar    1  UNL1       -0.0462
     32 C           6.5356    1.4095   -4.8232 C.ar    1  UNL1       -0.0192
     33 H           0.5396   -0.1279    1.0782 H       1  UNL1        0.0252
     34 H           0.5501   -0.8348   -0.5547 H       1  UNL1        0.0252
     35 H           0.5500    0.9160   -0.3629 H       1  UNL1        0.0252
     36 H           2.8110   -0.9628    0.4982 H       1  UNL1        0.0557
     37 H           2.8121    0.8120    0.6932 H       1  UNL1        0.0557
     38 H           4.7372   -0.8216   -0.8480 H       1  UNL1        0.0594
     39 H           4.7495    0.9412   -0.6689 H       1  UNL1        0.0594
     40 H           4.5082    1.2225   -3.0990 H       1  UNL1        0.0720
     41 H           4.4517   -0.5370   -3.3387 H       1  UNL1        0.0720
     42 H           8.3771   -1.1108   -3.4967 H       1  UNL1        0.0654
     43 H           9.7494   -0.6125   -5.4704 H       1  UNL1        0.0626
     44 H           8.0430    2.4694   -8.4786 H       1  UNL1        0.1569
     45 H           8.1566    3.5746  -10.5741 H       1  UNL1        0.1718
     46 H          10.4349    2.6396  -12.2275 H       1  UNL1        0.1729
     47 H           9.8431    3.3201  -14.8133 H       1  UNL1        0.0795
     48 H          10.9501    4.5186  -14.0754 H       1  UNL1        0.0795
     49 H           9.6761    7.6555  -16.1726 H       1  UNL1        0.0657
     50 H           9.7512    9.2179  -17.9850 H       1  UNL1        0.0278
     51 H           9.3847    8.4864  -19.5460 H       1  UNL1        0.0278
     52 H          11.0686    8.9071  -19.1315 H       1  UNL1        0.0278
     53 H          11.1906    3.8720  -20.4928 H       1  UNL1        0.0278
     54 H           9.9717    2.9885  -19.5926 H       1  UNL1        0.0278
     55 H          11.6821    2.9671  -19.0639 H       1  UNL1        0.0278
     56 H          10.0629    3.4521  -16.9578 H       1  UNL1        0.0657
     57 H           6.9285    2.4441   -6.6567 H       1  UNL1        0.0626
     58 H           5.6714    2.0342   -4.6247 H       1  UNL1        0.0654
@<TRIPOS>BOND
     1     1     2    1
     2     2     3    1
     3     3     4    1
     4     4     5    1
     5     5     6    1
     6     6     7    1
     7     7     8   ar
     8     8     9   ar
     9     9    10   ar
    10    10    11    1
    11    11    12    2
    12    11    13   am
    13    13    14    1
    14    14    15    2
    15    14    16    1
    16    16    17    1
    17    17    18   am
    18    18    19    2
    19    18    20    1
    20    20    21    1
    21    21    22    1
    22    22    23   ar
    23    23    24   ar
    24    24    25    1
    25    24    26   ar
    26    26    27    1
    27    26    28   ar
    28    28    29    1
    29    28    30   ar
    30    22    30   ar
    31    10    31   ar
    32    31    32   ar
    33     7    32   ar
    34     1    33    1
    35     1    34    1
    36     1    35    1
    37     2    36    1
    38     2    37    1
    39     4    38    1
    40     4    39    1
    41     5    40    1
    42     5    41    1
    43     8    42    1
    44     9    43    1
    45    13    44    1
    46    16    45    1
    47    17    46    1
    48    20    47    1
    49    20    48    1
    50    23    49    1
    51    25    50    1
    52    25    51    1
    53    25    52    1
    54    29    53    1
    55    29    54    1
    56    29    55    1
    57    30    56    1
    58    31    57    1
    59    32    58    1
