@<TRIPOS>MOLECULE
*****
 56 59 0 0 0
SMALL
GASTEIGER

@<TRIPOS>ATOM
      1 C           0.7380    0.0064   -0.0798 C.3     1  UNL1       -0.0612
      2 C           2.2459    0.0176   -0.0208 C.3     1  UNL1       -0.0288
      3 C           2.9210   -1.2740    0.3544 C.ar    1  UNL1       -0.0264
      4 C           2.5074   -2.4412   -0.3195 C.ar    1  UNL1       -0.0568
      5 C           2.8433   -3.6958    0.1646 C.ar    1  UNL1       -0.0614
      6 C           3.6900   -3.7901    1.2631 C.ar    1  UNL1       -0.0600
      7 C           4.2094   -2.6281    1.8701 C.ar    1  UNL1       -0.0402
      8 C           3.8664   -1.3454    1.4029 C.ar    1  UNL1        0.0366
      9 N           4.4285   -0.1862    2.0537 N.am    1  UNL1       -0.2846
     10 C           4.5736    1.0732    1.4621 C.2     1  UNL1        0.2273
     11 O           4.5239    1.2614    0.2439 O.2     1  UNL1       -0.2746
     12 C           4.8603    2.2683    2.3836 C.3     1  UNL1        0.0782
     13 S           3.9831    3.7272    1.6757 S.3     1  UNL1       -0.0541
     14 C           4.9920    5.1488    2.3033 C.3     1  UNL1        0.3258
     15 N           6.3731    5.1224    1.7494 N.2     1  UNL1       -0.0163
     16 C           6.7194    6.1666    1.0963 C.2     1  UNL1        0.4088
     17 N           7.9408    6.3306    0.4711 N.2     1  UNL1        0.0863
     18 N           7.9789    7.4903   -0.0390 N.2     1  UNL1       -0.0388
     19 C           6.7988    8.1339    0.2271 C.2     1  UNL1        0.1084
     20 C           6.5500    9.5419   -0.1858 C.3     1  UNL1       -0.0175
     21 C           5.9579    7.3780    0.9023 C.2     1  UNL1        0.1883
     22 C           4.6370    7.4986    1.4822 C.2     1  UNL1        0.3314
     23 N           3.9676    8.6092    1.4227 N.2     1  UNL1       -0.0985
     24 N           4.1649    6.3704    2.1220 N.pl3   1  UNL1       -0.1337
     25 C           2.9053    6.4384    2.7484 C.ar    1  UNL1        0.1294
     26 C           1.7718    6.7974    2.0014 C.ar    1  UNL1       -0.0165
     27 C           0.5662    7.0822    2.6297 C.ar    1  UNL1       -0.0545
     28 C           0.4625    6.9337    4.0113 C.ar    1  UNL1       -0.0197
     29 C           1.5702    6.5401    4.7674 C.ar    1  UNL1        0.1239
     30 O           1.3797    6.4696    6.1222 O.3     1  UNL1       -0.4950
     31 C           2.5388    6.1597    6.8916 C.3     1  UNL1        0.0788
     32 C           2.7841    6.2904    4.1295 C.ar    1  UNL1        0.0250
     33 H           0.4094    1.0261   -0.3047 H       1  UNL1        0.0233
     34 H           0.3403   -0.2685    0.9027 H       1  UNL1        0.0233
     35 H           0.3430   -0.6720   -0.8351 H       1  UNL1        0.0233
     36 H           2.3934    0.7269    0.7909 H       1  UNL1        0.0311
     37 H           2.6750    0.3968   -0.9536 H       1  UNL1        0.0311
     38 H           1.8738   -2.3652   -1.2013 H       1  UNL1        0.0621
     39 H           2.4125   -4.5832   -0.2944 H       1  UNL1        0.0618
     40 H           3.9513   -4.7776    1.6377 H       1  UNL1        0.0618
     41 H           4.8765   -2.7621    2.7171 H       1  UNL1        0.0636
     42 H           4.9773   -0.3619    2.8849 H       1  UNL1        0.1548
     43 H           5.9423    2.4089    2.3757 H       1  UNL1        0.0474
     44 H           4.4966    2.1144    3.4037 H       1  UNL1        0.0474
     45 H           5.1137    4.9853    3.3803 H       1  UNL1        0.1471
     46 H           7.3790    9.9728   -0.7480 H       1  UNL1        0.0294
     47 H           6.3874   10.1672    0.7012 H       1  UNL1        0.0294
     48 H           5.6519    9.5962   -0.8127 H       1  UNL1        0.0294
     49 H           4.4355    9.3610    0.9271 H       1  UNL1        0.3633
     50 H           1.8525    6.9021    0.9207 H       1  UNL1        0.0658
     51 H          -0.2701    7.4502    2.0427 H       1  UNL1        0.0620
     52 H          -0.4842    7.1453    4.4990 H       1  UNL1        0.0654
     53 H           2.2615    6.1619    7.9480 H       1  UNL1        0.0660
     54 H           3.3226    6.9145    6.7528 H       1  UNL1        0.0660
     55 H           2.9131    5.1591    6.6455 H       1  UNL1        0.0660
     56 H           3.6721    6.0499    4.6979 H       1  UNL1        0.0695
@<TRIPOS>BOND
     1     1     2    1
     2     2     3    1
     3     3     4   ar
     4     4     5   ar
     5     5     6   ar
     6     6     7   ar
     7     7     8   ar
     8     3     8   ar
     9     8     9    1
    10     9    10   am
    11    10    11    2
    12    10    12    1
    13    12    13    1
    14    13    14    1
    15    14    15    1
    16    15    16    2
    17    16    17    1
    18    17    18    2
    19    18    19    1
    20    19    20    1
    21    19    21    2
    22    16    21    1
    23    21    22    1
    24    22    23    2
    25    22    24    1
    26    14    24    1
    27    24    25    1
    28    25    26   ar
    29    26    27   ar
    30    27    28   ar
    31    28    29   ar
    32    29    30    1
    33    30    31    1
    34    29    32   ar
    35    25    32   ar
    36     1    33    1
    37     1    34    1
    38     1    35    1
    39     2    36    1
    40     2    37    1
    41     4    38    1
    42     5    39    1
    43     6    40    1
    44     7    41    1
    45     9    42    1
    46    12    43    1
    47    12    44    1
    48    14    45    1
    49    20    46    1
    50    20    47    1
    51    20    48    1
    52    23    49    1
    53    26    50    1
    54    27    51    1
    55    28    52    1
    56    31    53    1
    57    31    54    1
    58    31    55    1
    59    32    56    1
