REMARK  8 active torsions:
REMARK  status: ('A' for Active; 'I' for Inactive)
REMARK    1  A    between atoms: C_2  and  C_3 
REMARK    2  A    between atoms: C_7  and  N_8 
REMARK       I    between atoms: N_8  and  C_9 
REMARK       I    between atoms: C_9  and  N_23 
REMARK       I    between atoms: N_10  and  C_11 
REMARK    3  A    between atoms: C_11  and  C_13 
REMARK    4  A    between atoms: C_15  and  O_16 
REMARK    5  A    between atoms: C_19  and  O_20 
REMARK    6  A    between atoms: N_23  and  C_24 
REMARK    7  A    between atoms: C_24  and  C_25 
REMARK    8  A    between atoms: C_25  and  C_26 
ROOT
ATOM      1  N   UNL d   1       2.892   4.493   1.264  0.00  0.00    -0.190 N 
ATOM      2  C   UNL d   1       2.524   4.869  -0.041  0.00  0.00     0.704 C 
ATOM      3  N   UNL d   1       2.260   4.183  -1.125  0.00  0.00    -0.023 NA
ATOM      4  C   UNL d   1       1.638   2.959  -1.009  0.00  0.00     0.294 C 
ATOM      5  O   UNL d   1       0.803   2.749  -0.179  0.00  0.00    -0.265 OA
ATOM      6  N   UNL d   1       2.402   6.251  -0.251  0.00  0.00    -0.224 N 
ATOM      7  H   UNL d   1       2.827   5.193   1.993  0.00  0.00     0.184 HD
ATOM      8  H   UNL d   1       2.222   6.858   0.544  0.00  0.00     0.177 HD
ENDROOT
BRANCH   1   9
ATOM      9  C   UNL d   1       3.237   3.194   1.775  0.00  0.00     0.049 C 
ATOM     10  C   UNL d   1       3.328   2.892   3.145  0.00  0.00     0.030 C 
ATOM     11  C   UNL d   1       3.459   1.550   3.595  0.00  0.00     0.003 C 
ATOM     12  C   UNL d   1       3.383   0.485   2.709  0.00  0.00     0.007 C 
ATOM     13  C   UNL d   1       3.213   0.770   1.377  0.00  0.00    -0.056 C 
ATOM     14  C   UNL d   1       3.414   2.093   0.940  0.00  0.00     0.037 C 
BRANCH  13  15
ATOM     15  C   UNL d   1       2.583  -0.270   0.486  0.00  0.00     0.034 C 
ATOM     16  C   UNL d   1       1.038  -0.302   0.657  0.00  0.00     0.010 C 
ENDBRANCH  13  15
ENDBRANCH   1   9
BRANCH   6  17
ATOM     17  C   UNL d   1       1.841   6.686  -1.554  0.00  0.00     0.142 C 
BRANCH  17  18
ATOM     18  C   UNL d   1       1.617   8.177  -1.679  0.00  0.00     0.057 C 
BRANCH  18  19
ATOM     19  C   UNL d   1       1.250   8.709  -3.043  0.00  0.00    -0.048 A 
ATOM     20  C   UNL d   1       1.038  10.016  -3.199  0.00  0.00    -0.006 A 
ATOM     21  C   UNL d   1       1.092  11.068  -2.250  0.00  0.00     0.014 A 
ATOM     22  C   UNL d   1       0.658  10.234  -4.598  0.00  0.00     0.038 A 
ATOM     23  C   UNL d   1       0.681  12.281  -2.626  0.00  0.00     0.001 A 
ATOM     24  C   UNL d   1       0.322  12.556  -4.008  0.00  0.00     0.002 A 
ATOM     25  C   UNL d   1       0.297  11.619  -4.981  0.00  0.00     0.030 A 
ATOM     26  N   UNL d   1       0.701   9.142  -5.265  0.00  0.00    -0.385 N 
ATOM     27  C   UNL d   1       1.053   7.995  -4.356  0.00  0.00     0.155 A 
ATOM     28  H   UNL d   1       0.520   9.106  -6.269  0.00  0.00     0.160 HD
ENDBRANCH  18  19
ENDBRANCH  17  18
ENDBRANCH   6  17
BRANCH   4  29
ATOM     29  C   UNL d   1       1.956   1.909  -2.067  0.00  0.00     0.040 C 
ATOM     30  C   UNL d   1       1.256   0.695  -2.061  0.00  0.00     0.054 C 
ATOM     31  C   UNL d   1       1.651  -0.434  -2.792  0.00  0.00     0.071 C 
ATOM     32  C   UNL d   1       2.460  -0.206  -3.872  0.00  0.00     0.073 C 
ATOM     33  C   UNL d   1       3.080   1.041  -3.996  0.00  0.00     0.071 C 
ATOM     34  C   UNL d   1       2.943   2.045  -3.017  0.00  0.00     0.054 C 
BRANCH  31  35
ATOM     35  O   UNL d   1       1.220  -1.657  -2.356  0.00  0.00    -0.356 OA
ATOM     36  C   UNL d   1       1.543  -2.799  -3.154  0.00  0.00     0.210 C 
ENDBRANCH  31  35
BRANCH  33  37
ATOM     37  O   UNL d   1       3.779   1.192  -5.162  0.00  0.00    -0.356 OA
ATOM     38  C   UNL d   1       4.383   2.466  -5.285  0.00  0.00     0.210 C 
ENDBRANCH  33  37
ENDBRANCH   4  29
TORSDOF 8
