REMARK  3 active torsions:
REMARK  status: ('A' for Active; 'I' for Inactive)
REMARK       I    between atoms: C_2  and  N_3 
REMARK    1  A    between atoms: C_2  and  C_12 
REMARK    2  A    between atoms: N_3  and  N_4 
REMARK       I    between atoms: N_4  and  C_5 
REMARK    3  A    between atoms: C_5  and  C_7 
ROOT
ATOM      1  O   UNL d   1       1.028   0.163  -0.051  0.00  0.00    -0.264 OA
ATOM      2  C   UNL d   1       2.263   0.127   0.037  0.00  0.00     0.293 C 
ATOM      3  N   UNL d   1       2.977   1.272   0.403  0.00  0.00    -0.261 N 
ATOM      4  H   UNL d   1       3.994   1.319   0.382  0.00  0.00     0.190 HD
ENDROOT
BRANCH   2   5
ATOM      5  C   UNL d   1       3.058  -1.084  -0.174  0.00  0.00     0.146 A 
ATOM      6  C   UNL d   1       4.144  -1.587   0.524  0.00  0.00     0.057 A 
ATOM      7  C   UNL d   1       4.486  -2.844  -0.044  0.00  0.00     0.001 A 
ATOM      8  C   UNL d   1       5.448  -3.836   0.233  0.00  0.00     0.014 A 
ATOM      9  C   UNL d   1       3.597  -3.045  -1.093  0.00  0.00     0.086 A 
ATOM     10  C   UNL d   1       5.492  -4.989  -0.561  0.00  0.00     0.001 A 
ATOM     11  C   UNL d   1       4.596  -5.159  -1.617  0.00  0.00     0.003 A 
ATOM     12  C   UNL d   1       3.626  -4.184  -1.910  0.00  0.00     0.038 A 
ATOM     13  O   UNL d   1       2.721  -1.988  -1.167  0.00  0.00    -0.304 OA
ENDBRANCH   2   5
BRANCH   3  14
ATOM     14  N   UNL d   1       2.293   2.493   0.723  0.00  0.00    -0.262 N 
ATOM     15  C   UNL d   1       3.023   3.662   0.947  0.00  0.00     0.277 C 
ATOM     16  O   UNL d   1       4.257   3.646   0.870  0.00  0.00    -0.265 OA
ATOM     17  H   UNL d   1       1.277   2.478   0.662  0.00  0.00     0.190 HD
BRANCH  15  18
ATOM     18  C   UNL d   1       2.248   4.860   1.283  0.00  0.00     0.074 A 
ATOM     19  C   UNL d   1       1.149   5.002   2.116  0.00  0.00     0.025 A 
ATOM     20  C   UNL d   1       0.700   6.357   2.227  0.00  0.00     0.009 A 
ATOM     21  C   UNL d   1       1.457   7.216   1.464  0.00  0.00     0.050 A 
ATOM     22  S   UNL d   1       2.727   6.393   0.659  0.00  0.00    -0.097 SA
ENDBRANCH  15  18
ENDBRANCH   3  14
TORSDOF 3
