@<TRIPOS>MOLECULE
*****
 48 50 0 0 0
SMALL
GASTEIGER

@<TRIPOS>ATOM
      1 C           1.0614   -0.0228   -0.0140 C.3     1  UNL1        0.0125
      2 C           2.5662   -0.1122   -0.0823 C.2     1  UNL1        0.2141
      3 O           3.0960   -1.0256   -0.7127 O.2     1  UNL1       -0.2758
      4 N           3.2560    0.8633    0.6270 N.am    1  UNL1       -0.2857
      5 C           4.6709    0.9600    0.6106 C.ar    1  UNL1        0.0334
      6 C           5.3821    1.3385    1.7499 C.ar    1  UNL1       -0.0398
      7 C           6.7882    1.4560    1.6980 C.ar    1  UNL1       -0.0479
      8 C           7.5118    1.1663    0.5217 C.ar    1  UNL1        0.0372
      9 C           9.0206    1.1702    0.5729 C.2     1  UNL1        0.2497
     10 O           9.5522    1.4978    1.6357 O.2     1  UNL1       -0.2698
     11 N           9.7187    0.8374   -0.5795 N.am    1  UNL1       -0.2593
     12 C          11.0993    0.8823   -0.6426 C.ar    1  UNL1        0.1880
     13 N          11.7944    1.2658   -1.6904 N.ar    1  UNL1       -0.1256
     14 N          13.1647    1.1623   -1.4759 N.ar    1  UNL1       -0.1446
     15 C          13.4519    0.5799   -0.3251 C.ar    1  UNL1        0.1052
     16 C          14.8571    0.2624    0.1329 C.3     1  UNL1        0.0135
     17 C          14.9396   -0.5184    1.4468 C.3     1  UNL1        0.0179
     18 N          16.2917   -0.8220    1.8941 N.am    1  UNL1       -0.3110
     19 C          16.4786   -1.5693    3.0409 C.2     1  UNL1        0.2441
     20 O          15.5479   -2.0089    3.7203 O.2     1  UNL1       -0.2702
     21 C          17.8742   -1.8406    3.4654 C.ar    1  UNL1        0.0377
     22 C          18.1841   -3.0825    4.0400 C.ar    1  UNL1       -0.0496
     23 C          19.4431   -3.3018    4.6057 C.ar    1  UNL1       -0.0600
     24 C          20.4139   -2.3022    4.5504 C.ar    1  UNL1       -0.0477
     25 C          20.1056   -1.0731    3.9664 C.ar    1  UNL1        0.0186
     26 BR         21.3958    0.3098    3.9726 Br      1  UNL1       -0.0503
     27 C          18.8412   -0.8317    3.4254 C.ar    1  UNL1       -0.0356
     28 S          12.0460    0.1992    0.5999 S.2     1  UNL1       -0.0353
     29 C           6.7830    0.8334   -0.6211 C.ar    1  UNL1       -0.0479
     30 C           5.3843    0.7240   -0.5677 C.ar    1  UNL1       -0.0398
     31 H           0.6411   -0.8685   -0.5730 H       1  UNL1        0.0323
     32 H           0.7050    0.8977   -0.4824 H       1  UNL1        0.0323
     33 H           0.7071   -0.0929    1.0168 H       1  UNL1        0.0323
     34 H           2.7488    1.4411    1.2868 H       1  UNL1        0.1548
     35 H           4.8822    1.4681    2.7079 H       1  UNL1        0.0636
     36 H           7.3227    1.7602    2.5991 H       1  UNL1        0.0626
     37 H           9.2703    0.8741   -1.4814 H       1  UNL1        0.1571
     38 H          15.4197    1.2000    0.2286 H       1  UNL1        0.0349
     39 H          15.3596   -0.3126   -0.6570 H       1  UNL1        0.0349
     40 H          14.4069   -1.4731    1.3538 H       1  UNL1        0.0466
     41 H          14.4628    0.0492    2.2553 H       1  UNL1        0.0466
     42 H          17.0878   -0.5625    1.3248 H       1  UNL1        0.1490
     43 H          17.4380   -3.8752    4.0662 H       1  UNL1        0.0625
     44 H          19.6583   -4.2396    5.1138 H       1  UNL1        0.0618
     45 H          21.3969   -2.4847    4.9791 H       1  UNL1        0.0629
     46 H          18.5972    0.1486    3.0295 H       1  UNL1        0.0636
     47 H           7.2526    0.6443   -1.5781 H       1  UNL1        0.0626
     48 H           4.8516    0.4662   -1.4803 H       1  UNL1        0.0636
@<TRIPOS>BOND
     1     1     2    1
     2     2     3    2
     3     2     4   am
     4     4     5    1
     5     5     6   ar
     6     6     7   ar
     7     7     8   ar
     8     8     9    1
     9     9    10    2
    10     9    11   am
    11    11    12    1
    12    12    13   ar
    13    13    14   ar
    14    14    15   ar
    15    15    16    1
    16    16    17    1
    17    17    18    1
    18    18    19   am
    19    19    20    2
    20    19    21    1
    21    21    22   ar
    22    22    23   ar
    23    23    24   ar
    24    24    25   ar
    25    25    26    1
    26    25    27   ar
    27    21    27   ar
    28    15    28   ar
    29    12    28   ar
    30     8    29   ar
    31    29    30   ar
    32     5    30   ar
    33     1    31    1
    34     1    32    1
    35     1    33    1
    36     4    34    1
    37     6    35    1
    38     7    36    1
    39    11    37    1
    40    16    38    1
    41    16    39    1
    42    17    40    1
    43    17    41    1
    44    18    42    1
    45    22    43    1
    46    23    44    1
    47    24    45    1
    48    27    46    1
    49    29    47    1
    50    30    48    1
