@<TRIPOS>MOLECULE
*****
 66 67 0 0 0
SMALL
GASTEIGER

@<TRIPOS>ATOM
      1 C          10.2894   -6.9637    5.8911 C.3     1  UNL1       -0.0653
      2 C           9.5232   -7.1525    4.6061 C.3     1  UNL1       -0.0559
      3 C           9.8455   -6.0168    3.6857 C.3     1  UNL1       -0.0533
      4 C           9.0767   -6.1848    2.3930 C.3     1  UNL1       -0.0516
      5 C           9.4933   -4.9718    1.6205 C.3     1  UNL1       -0.0371
      6 C           8.9760   -4.9487    0.2319 C.3     1  UNL1        0.0158
      7 N           9.1735   -3.8835   -0.7389 N.am    1  UNL1       -0.2857
      8 C          10.0220   -2.7907   -0.5004 C.2     1  UNL1        0.2162
      9 O          10.2092   -1.8931   -1.3358 O.2     1  UNL1       -0.2756
     10 C          10.7348   -2.7244    0.8382 C.3     1  UNL1        0.0214
     11 C          11.6578   -1.5819    1.1170 C.3     1  UNL1       -0.0570
     12 C           8.4716   -3.9829   -2.1105 C.3     1  UNL1        0.1341
     13 C           6.9305   -3.6586   -2.0695 C.2     1  UNL1        0.2386
     14 O           6.4253   -2.8822   -2.8828 O.2     1  UNL1       -0.2734
     15 N           6.1352   -4.3697   -1.1752 N.am    1  UNL1       -0.3106
     16 C           4.6925   -4.2476   -1.0666 C.3     1  UNL1        0.0232
     17 C           4.1912   -5.1132    0.1161 C.3     1  UNL1       -0.0345
     18 C           2.6953   -4.9340    0.3583 C.3     1  UNL1       -0.0514
     19 C           2.3350   -3.4631    0.5372 C.3     1  UNL1       -0.0529
     20 C           2.8108   -2.6387   -0.6481 C.3     1  UNL1       -0.0514
     21 C           4.3026   -2.7903   -0.8548 C.3     1  UNL1       -0.0345
     22 C           8.6861   -5.2804   -2.9505 C.ar    1  UNL1        0.0648
     23 C           8.5820   -6.5899   -2.4399 C.ar    1  UNL1        0.1292
     24 O           8.0437   -6.8947   -1.2303 O.3     1  UNL1       -0.5062
     25 C           8.7594   -7.7553   -3.1534 C.ar    1  UNL1        0.0219
     26 C           8.8263   -7.6633   -4.5140 C.ar    1  UNL1        0.1238
     27 O           8.8007   -8.8030   -5.2549 O.3     1  UNL1       -0.5065
     28 C           8.8302   -6.4170   -5.1292 C.ar    1  UNL1        0.0219
     29 C           8.7999   -5.2384   -4.3530 C.ar    1  UNL1        0.1292
     30 O           8.8089   -4.0328   -4.9987 O.3     1  UNL1       -0.5062
     31 H          10.0618   -7.7812    6.5740 H       1  UNL1        0.0230
     32 H          10.0165   -6.0142    6.3640 H       1  UNL1        0.0230
     33 H          11.3673   -6.9476    5.6966 H       1  UNL1        0.0230
     34 H           8.4451   -7.1657    4.7941 H       1  UNL1        0.0263
     35 H           9.7987   -8.0956    4.1234 H       1  UNL1        0.0263
     36 H          10.9260   -5.9814    3.4787 H       1  UNL1        0.0265
     37 H           9.5924   -5.0516    4.1489 H       1  UNL1        0.0265
     38 H           7.9929   -6.1929    2.5520 H       1  UNL1        0.0266
     39 H           9.3595   -7.1048    1.8687 H       1  UNL1        0.0266
     40 H          10.5772   -5.0491    1.5729 H       1  UNL1        0.0280
     41 H           9.1156   -4.1188    2.1820 H       1  UNL1        0.0280
     42 H           7.9088   -5.0409    0.4005 H       1  UNL1        0.0465
     43 H           9.4804   -5.8070   -0.1981 H       1  UNL1        0.0465
     44 H          11.3814   -3.5982    0.9201 H       1  UNL1        0.0356
     45 H           9.9826   -2.6356    1.6217 H       1  UNL1        0.0356
     46 H          12.4772   -1.5900    0.4001 H       1  UNL1        0.0234
     47 H          12.0660   -1.7122    2.1284 H       1  UNL1        0.0234
     48 H          11.1056   -0.6444    1.0755 H       1  UNL1        0.0234
     49 H           8.8916   -3.1529   -2.6968 H       1  UNL1        0.0650
     50 H           6.4527   -5.1255   -0.6206 H       1  UNL1        0.1490
     51 H           4.2668   -4.6396   -1.9981 H       1  UNL1        0.0498
     52 H           4.7370   -4.8458    1.0330 H       1  UNL1        0.0283
     53 H           4.4083   -6.1756   -0.0603 H       1  UNL1        0.0283
     54 H           2.3870   -5.4990    1.2454 H       1  UNL1        0.0266
     55 H           2.1418   -5.3456   -0.4940 H       1  UNL1        0.0266
     56 H           2.7945   -3.0811    1.4575 H       1  UNL1        0.0265
     57 H           1.2516   -3.3539    0.6439 H       1  UNL1        0.0265
     58 H           2.5801   -1.5808   -0.4950 H       1  UNL1        0.0266
     59 H           2.2903   -2.9624   -1.5577 H       1  UNL1        0.0266
     60 H           4.8547   -2.3870    0.0045 H       1  UNL1        0.0283
     61 H           4.5815   -2.1835   -1.7185 H       1  UNL1        0.0283
     62 H           7.6302   -6.0598   -1.0451 H       1  UNL1        0.2922
     63 H           8.6937   -8.6957   -2.6158 H       1  UNL1        0.0691
     64 H           8.7400   -9.5529   -4.6342 H       1  UNL1        0.2921
     65 H           8.8246   -6.3838   -6.2132 H       1  UNL1        0.0691
     66 H           8.8585   -4.1800   -5.9601 H       1  UNL1        0.2922
@<TRIPOS>BOND
     1     1     2    1
     2     2     3    1
     3     3     4    1
     4     4     5    1
     5     5     6    1
     6     6     7    1
     7     7     8   am
     8     8     9    2
     9     8    10    1
    10    10    11    1
    11    13    14    2
    12    13    15   am
    13    15    16    1
    14    16    17    1
    15    17    18    1
    16    18    19    1
    17    19    20    1
    18    20    21    1
    19    16    21    1
    20    12    22    1
    21    22    23   ar
    22    23    24    1
    23    23    25   ar
    24    25    26   ar
    25    26    27    1
    26    26    28   ar
    27    28    29   ar
    28    22    29   ar
    29    29    30    1
    30    12    13    1
    31    12     7    1
    32     1    31    1
    33     1    32    1
    34     1    33    1
    35     2    34    1
    36     2    35    1
    37     3    36    1
    38     3    37    1
    39     4    38    1
    40     4    39    1
    41     5    40    1
    42     5    41    1
    43     6    42    1
    44     6    43    1
    45    10    44    1
    46    10    45    1
    47    11    46    1
    48    11    47    1
    49    11    48    1
    50    12    49    1
    51    15    50    1
    52    16    51    1
    53    17    52    1
    54    17    53    1
    55    18    54    1
    56    18    55    1
    57    19    56    1
    58    19    57    1
    59    20    58    1
    60    20    59    1
    61    21    60    1
    62    21    61    1
    63    24    62    1
    64    25    63    1
    65    27    64    1
    66    28    65    1
    67    30    66    1
