@<TRIPOS>MOLECULE
*****
 57 60 0 0 0
SMALL
GASTEIGER

@<TRIPOS>ATOM
      1 C           3.4304   -0.4127    0.4143 C.3     1  UNL1       -0.0380
      2 C           1.9923   -0.0798    0.2150 C.ar    1  UNL1       -0.0291
      3 C           1.2070   -1.2435    0.0805 C.ar    1  UNL1       -0.0557
      4 C          -0.1634   -1.1718    0.0083 C.ar    1  UNL1       -0.0430
      5 C          -0.7541    0.0827    0.0059 C.ar    1  UNL1        0.0427
      6 CL         -2.4767    0.1492   -0.0302 Cl      1  UNL1       -0.0835
      7 C           0.0189    1.2698    0.0429 C.ar    1  UNL1       -0.0218
      8 C           1.4270    1.2271    0.1617 C.ar    1  UNL1        0.0391
      9 N           2.1708    2.4947    0.1461 N.am    1  UNL1       -0.2689
     10 C           3.5325    2.6713    0.3922 C.2     1  UNL1        0.3082
     11 O           4.2530    1.8495    0.9572 O.2     1  UNL1       -0.2522
     12 N           4.1187    3.8705    0.0005 N.am    1  UNL1       -0.2675
     13 C           5.5840    3.8782   -0.0536 C.ar    1  UNL1        0.0576
     14 C           6.3353    4.7715    0.7780 C.ar    1  UNL1       -0.0174
     15 C           7.7496    4.8364    0.6912 C.ar    1  UNL1        0.0355
     16 N           8.5066    5.8741    1.3283 N.am    1  UNL1       -0.2814
     17 C           9.8510    6.1566    1.0378 C.2     1  UNL1        0.2483
     18 O          10.5859    5.5494    0.2634 O.2     1  UNL1       -0.2699
     19 C          10.5042    7.3022    1.7177 C.ar    1  UNL1        0.0372
     20 C          11.5335    7.9926    1.0408 C.ar    1  UNL1       -0.0469
     21 C          12.3516    8.8903    1.7290 C.ar    1  UNL1       -0.0257
     22 C          12.0993    9.1383    3.0715 C.ar    1  UNL1        0.1234
     23 F          12.8615   10.0176    3.7341 F       1  UNL1       -0.2055
     24 C          11.0705    8.4810    3.7437 C.ar    1  UNL1       -0.0257
     25 C          10.2728    7.5526    3.0701 C.ar    1  UNL1       -0.0469
     26 C           8.3918    3.8904   -0.0978 C.ar    1  UNL1       -0.0386
     27 C           7.6778    2.9858   -0.8716 C.ar    1  UNL1       -0.0371
     28 C           6.2787    2.9556   -0.8989 C.ar    1  UNL1        0.0514
     29 N           5.7176    2.0404   -1.7680 N.pl3   1  UNL1       -0.3285
     30 C           4.6277    2.2961   -2.6858 C.3     1  UNL1        0.0123
     31 C           3.8294    1.0047   -2.6718 C.3     1  UNL1       -0.0358
     32 C           4.8906   -0.0765   -2.4522 C.3     1  UNL1       -0.0358
     33 C           6.0083    0.6092   -1.6408 C.3     1  UNL1        0.0123
     34 H           3.6910   -1.4561    0.2185 H       1  UNL1        0.0278
     35 H           3.7553   -0.1776    1.4247 H       1  UNL1        0.0278
     36 H           3.9784    0.1436   -0.3144 H       1  UNL1        0.0278
     37 H           1.6912   -2.2198    0.0538 H       1  UNL1        0.0621
     38 H          -0.7367   -2.0939   -0.0230 H       1  UNL1        0.0632
     39 H          -0.5177    2.2140   -0.0017 H       1  UNL1        0.0651
     40 H           1.6175    3.3322    0.0115 H       1  UNL1        0.1564
     41 H           3.6797    4.7047    0.3628 H       1  UNL1        0.1564
     42 H           5.8217    5.3675    1.5289 H       1  UNL1        0.0655
     43 H           7.9898    6.5446    1.8816 H       1  UNL1        0.1551
     44 H          11.7298    7.7963   -0.0138 H       1  UNL1        0.0626
     45 H          13.1966    9.3673    1.2399 H       1  UNL1        0.0646
     46 H          10.9249    8.6638    4.8031 H       1  UNL1        0.0646
     47 H           9.5307    6.9843    3.6204 H       1  UNL1        0.0626
     48 H           9.4702    3.8228   -0.1720 H       1  UNL1        0.0637
     49 H           8.2479    2.3376   -1.5325 H       1  UNL1        0.0637
     50 H           5.0395    2.4414   -3.6878 H       1  UNL1        0.0464
     51 H           4.0189    3.1663   -2.4352 H       1  UNL1        0.0464
     52 H           3.2324    0.8368   -3.5692 H       1  UNL1        0.0281
     53 H           3.1051    1.0647   -1.8664 H       1  UNL1        0.0281
     54 H           5.2756   -0.4127   -3.4167 H       1  UNL1        0.0281
     55 H           4.5055   -0.9790   -1.9620 H       1  UNL1        0.0281
     56 H           6.9823    0.3439   -2.0648 H       1  UNL1        0.0464
     57 H           6.0219    0.2887   -0.5899 H       1  UNL1        0.0464
@<TRIPOS>BOND
     1     1     2    1
     2     2     3   ar
     3     3     4   ar
     4     4     5   ar
     5     5     6    1
     6     5     7   ar
     7     7     8   ar
     8     2     8   ar
     9     8     9    1
    10     9    10   am
    11    10    11    2
    12    10    12   am
    13    12    13    1
    14    13    14   ar
    15    14    15   ar
    16    15    16    1
    17    16    17   am
    18    17    18    2
    19    17    19    1
    20    19    20   ar
    21    20    21   ar
    22    21    22   ar
    23    22    23    1
    24    22    24   ar
    25    24    25   ar
    26    19    25   ar
    27    15    26   ar
    28    26    27   ar
    29    27    28   ar
    30    13    28   ar
    31    28    29    1
    32    29    30    1
    33    30    31    1
    34    31    32    1
    35    32    33    1
    36    29    33    1
    37     1    34    1
    38     1    35    1
    39     1    36    1
    40     3    37    1
    41     4    38    1
    42     7    39    1
    43     9    40    1
    44    12    41    1
    45    14    42    1
    46    16    43    1
    47    20    44    1
    48    21    45    1
    49    24    46    1
    50    25    47    1
    51    26    48    1
    52    27    49    1
    53    30    50    1
    54    30    51    1
    55    31    52    1
    56    31    53    1
    57    32    54    1
    58    32    55    1
    59    33    56    1
    60    33    57    1
