REMARK  7 active torsions:
REMARK  status: ('A' for Active; 'I' for Inactive)
REMARK    1  A    between atoms: O_2  and  C_3 
REMARK    2  A    between atoms: C_5  and  C_6 
REMARK    3  A    between atoms: C_21  and  O_22 
REMARK    4  A    between atoms: O_22  and  C_23 
REMARK    5  A    between atoms: C_23  and  C_24 
REMARK       I    between atoms: C_24  and  N_26 
REMARK    6  A    between atoms: N_26  and  C_27 
REMARK    7  A    between atoms: C_31  and  C_32 
ROOT
ATOM      1  C   UNL d   1       3.099   0.443  -1.102  0.00  0.00     0.102 A 
ATOM      2  C   UNL d   1       4.228  -0.233  -1.711  0.00  0.00     0.050 A 
ATOM      3  C   UNL d   1       4.971   0.299  -2.801  0.00  0.00    -0.013 A 
ATOM      4  C   UNL d   1       4.477   1.537  -3.281  0.00  0.00     0.014 A 
ATOM      5  C   UNL d   1       3.419   2.232  -2.666  0.00  0.00     0.040 A 
ATOM      6  C   UNL d   1       2.730   1.724  -1.563  0.00  0.00     0.102 A 
ENDROOT
BRANCH   6   7
ATOM      7  O   UNL d   1       1.845   2.666  -1.080  0.00  0.00    -0.339 OA
BRANCH   7   8
ATOM      8  C   UNL d   1       0.880   2.219  -0.169  0.00  0.00     0.278 C 
BRANCH   8   9
ATOM      9  C   UNL d   1      -0.292   3.071   0.299  0.00  0.00     0.246 C 
ATOM     10  O   UNL d   1      -0.580   4.152  -0.252  0.00  0.00    -0.271 OA
ATOM     11  N   UNL d   1      -1.021   2.499   1.355  0.00  0.00    -0.325 N 
ATOM     12  H   UNL d   1      -0.595   1.779   1.931  0.00  0.00     0.169 HD
BRANCH  11  13
ATOM     13  C   UNL d   1      -2.232   3.063   1.802  0.00  0.00     0.035 A 
ATOM     14  C   UNL d   1      -2.570   3.130   3.155  0.00  0.00     0.029 A 
ATOM     15  C   UNL d   1      -3.747   3.792   3.537  0.00  0.00     0.003 A 
ATOM     16  C   UNL d   1      -4.594   4.347   2.570  0.00  0.00     0.016 A 
ATOM     17  C   UNL d   1      -4.292   4.217   1.210  0.00  0.00     0.050 A 
ATOM     18  C   UNL d   1      -3.114   3.567   0.848  0.00  0.00     0.045 A 
BRANCH  17  19
ATOM     19  C   UNL d   1      -5.203   4.739   0.132  0.00  0.00     0.417 C 
ATOM     20  F   UNL d   1      -6.445   4.184   0.205  0.00  0.00    -0.166 F 
ATOM     21  F   UNL d   1      -5.385   6.085   0.194  0.00  0.00    -0.166 F 
ATOM     22  F   UNL d   1      -4.762   4.478  -1.132  0.00  0.00    -0.166 F 
ENDBRANCH  17  19
ENDBRANCH  11  13
ENDBRANCH   8   9
ENDBRANCH   7   8
ENDBRANCH   6   7
BRANCH   1  23
ATOM     23  O   UNL d   1       2.665  -0.132   0.079  0.00  0.00    -0.353 OA
ATOM     24  C   UNL d   1       1.322  -0.620   0.168  0.00  0.00     0.210 C 
ENDBRANCH   1  23
BRANCH   3  25
ATOM     25  C   UNL d   1       6.403  -0.235  -3.211  0.00  0.00     0.216 C 
ATOM     26  N   UNL d   1       7.117   0.807  -3.920  0.00  0.00    -0.364 N 
ATOM     27  C   UNL d   1       8.302   0.543  -4.565  0.00  0.00     0.043 A 
ATOM     28  H   UNL d   1       6.652   1.627  -4.255  0.00  0.00     0.162 HD
ATOM     29  C   UNL d   1       9.170   1.607  -4.831  0.00  0.00     0.030 A 
ATOM     30  C   UNL d   1       8.646  -0.750  -4.906  0.00  0.00     0.026 A 
ATOM     31  C   UNL d   1      10.385   1.404  -5.473  0.00  0.00     0.003 A 
ATOM     32  C   UNL d   1      10.727   0.124  -5.881  0.00  0.00     0.012 A 
ATOM     33  C   UNL d   1       9.852  -0.944  -5.632  0.00  0.00    -0.025 A 
ATOM     34  C   UNL d   1      10.080  -2.186  -6.190  0.00  0.00    -0.005 C 
ATOM     35  C   UNL d   1       9.043  -3.103  -6.138  0.00  0.00     0.045 C 
ATOM     36  C   UNL d   1       8.152  -3.057  -5.062  0.00  0.00     0.013 C 
ATOM     37  C   UNL d   1       7.765  -1.808  -4.580  0.00  0.00     0.040 C 
ATOM     38  N   UNL d   1       6.568  -1.544  -3.875  0.00  0.00    -0.364 N 
ATOM     39  H   UNL d   1       5.897  -2.283  -3.734  0.00  0.00     0.162 HD
ENDBRANCH   3  25
TORSDOF 7
