REMARK  7 active torsions:
REMARK  status: ('A' for Active; 'I' for Inactive)
REMARK    1  A    between atoms: C_2  and  C_4 
REMARK    2  A    between atoms: C_7  and  N_8 
REMARK    3  A    between atoms: C_12  and  S_13 
REMARK    4  A    between atoms: S_13  and  C_14 
REMARK    5  A    between atoms: C_14  and  C_15 
REMARK    6  A    between atoms: C_15  and  C_17 
REMARK    7  A    between atoms: C_20  and  C_21 
REMARK       I    between atoms: C_21  and  N_23 
ROOT
ATOM      1  N   UNL d   1       4.505   5.505   0.396  0.00  0.00    -0.259 N 
ATOM      2  N   UNL d   1       3.834   6.448   1.165  0.00  0.00    -0.042 NA
ATOM      3  N   UNL d   1       4.831   7.425   1.445  0.00  0.00     0.072 N 
ATOM      4  N   UNL d   1       5.697   7.516   0.263  0.00  0.00    -0.105 NA
ATOM      5  C   UNL d   1       5.487   6.211  -0.428  0.00  0.00     0.267 C 
ATOM      6  H   UNL d   1       3.388   6.029   1.992  0.00  0.00     0.181 HD
ATOM      7  H   UNL d   1       5.385   7.097   2.263  0.00  0.00     0.325 HD
ATOM      8  H   UNL d   1       4.428   8.349   1.687  0.00  0.00     0.325 HD
ATOM      9  H   UNL d   1       6.675   7.504   0.561  0.00  0.00     0.158 HD
ENDROOT
BRANCH   5  10
ATOM     10  S   UNL d   1       7.094   5.394  -0.580  0.00  0.00    -0.118 SA
BRANCH  10  11
ATOM     11  C   UNL d   1       8.058   6.682  -1.466  0.00  0.00     0.161 C 
BRANCH  11  12
ATOM     12  C   UNL d   1       9.533   6.319  -1.562  0.00  0.00     0.166 C 
ATOM     13  O   UNL d   1       9.993   5.231  -1.222  0.00  0.00    -0.292 OA
BRANCH  12  14
ATOM     14  C   UNL d   1      10.446   7.329  -2.140  0.00  0.00     0.012 A 
ATOM     15  C   UNL d   1      10.559   8.627  -1.843  0.00  0.00     0.128 A 
ATOM     16  N   UNL d   1      11.498   9.287  -2.602  0.00  0.00    -0.259 NA
ATOM     17  C   UNL d   1      11.998   8.363  -3.384  0.00  0.00     0.106 A 
ATOM     18  C   UNL d   1      11.421   6.971  -3.206  0.00  0.00     0.109 A 
BRANCH  17  19
ATOM     19  C   UNL d   1      12.995   8.596  -4.516  0.00  0.00     0.268 C 
ATOM     20  O   UNL d   1      13.198   7.647  -5.274  0.00  0.00    -0.266 OA
ATOM     21  N   UNL d   1      13.444   9.884  -4.740  0.00  0.00    -0.347 N 
ATOM     22  C   UNL d   1      13.450  10.511  -6.047  0.00  0.00     0.126 C 
ATOM     23  C   UNL d   1      14.297  10.619  -3.824  0.00  0.00     0.126 C 
ATOM     24  C   UNL d   1      14.769  11.256  -6.140  0.00  0.00     0.021 C 
ATOM     25  C   UNL d   1      15.101  11.601  -4.691  0.00  0.00     0.021 C 
ENDBRANCH  17  19
ENDBRANCH  12  14
ENDBRANCH  11  12
ENDBRANCH  10  11
ENDBRANCH   5  10
BRANCH   1  26
ATOM     26  C   UNL d   1       4.033   4.212   0.248  0.00  0.00     0.050 A 
ATOM     27  C   UNL d   1       4.838   3.119   0.606  0.00  0.00     0.031 A 
ATOM     28  C   UNL d   1       4.405   1.791   0.467  0.00  0.00     0.010 A 
ATOM     29  C   UNL d   1       3.103   1.511   0.044  0.00  0.00    -0.055 A 
ATOM     30  C   UNL d   1       2.287   2.600  -0.293  0.00  0.00     0.010 A 
ATOM     31  C   UNL d   1       2.735   3.925  -0.176  0.00  0.00     0.031 A 
BRANCH  29  32
ATOM     32  C   UNL d   1       2.600   0.072  -0.004  0.00  0.00     0.010 C 
ATOM     33  C   UNL d   1       1.068  -0.027   0.041  0.00  0.00     0.015 C 
ATOM     34  C   UNL d   1       3.124  -0.661  -1.239  0.00  0.00     0.015 C 
ENDBRANCH  29  32
ENDBRANCH   1  26
TORSDOF 7
