REMARK  12 active torsions:
REMARK  status: ('A' for Active; 'I' for Inactive)
REMARK    1  A    between atoms: C_2  and  C_3 
REMARK    2  A    between atoms: C_3  and  C_25 
REMARK    3  A    between atoms: N_4  and  N_5 
REMARK       I    between atoms: N_5  and  C_6 
REMARK    4  A    between atoms: C_6  and  C_8 
REMARK    5  A    between atoms: C_8  and  C_9 
REMARK    6  A    between atoms: C_9  and  C_10 
REMARK    7  A    between atoms: C_10  and  C_11 
REMARK       I    between atoms: C_11  and  N_13 
REMARK    8  A    between atoms: N_13  and  N_14 
REMARK    9  A    between atoms: C_15  and  C_16 
REMARK   10  A    between atoms: C_15  and  C_18 
REMARK   11  A    between atoms: C_21  and  O_22 
REMARK   12  A    between atoms: C_28  and  O_29 
ROOT
ATOM      1  C   UNL d   1      -2.348   3.623  -2.413  0.00  0.00     0.019 C 
ENDROOT
BRANCH   1   2
ATOM      2  C   UNL d   1      -1.489   2.567  -1.733  0.00  0.00     0.105 C 
BRANCH   2   3
ATOM      3  C   UNL d   1      -0.000   2.931  -1.960  0.00  0.00     0.237 C 
ATOM      4  N   UNL d   1       0.849   2.023  -1.367  0.00  0.00    -0.247 N 
ATOM      5  H   UNL d   1       0.368   1.282  -0.912  0.00  0.00     0.192 HD
ATOM      6  O   UNL d   1       0.362   3.918  -2.599  0.00  0.00    -0.272 OA
BRANCH   4   7
ATOM      7  N   UNL d   1       2.217   2.089  -1.411  0.00  0.00    -0.176 NA
ATOM      8  C   UNL d   1       2.996   1.188  -0.863  0.00  0.00     0.064 C 
BRANCH   8   9
ATOM      9  C   UNL d   1       2.594  -0.066  -0.058  0.00  0.00     0.057 C 
ATOM     10  C   UNL d   1       1.120  -0.339   0.133  0.00  0.00     0.011 C 
ENDBRANCH   8   9
BRANCH   8  11
ATOM     11  C   UNL d   1       4.503   1.393  -0.992  0.00  0.00    -0.010 A 
ATOM     12  C   UNL d   1       5.381   0.338  -1.304  0.00  0.00     0.016 A 
ATOM     13  C   UNL d   1       6.765   0.563  -1.448  0.00  0.00     0.037 A 
ATOM     14  C   UNL d   1       7.274   1.844  -1.264  0.00  0.00     0.065 A 
ATOM     15  C   UNL d   1       6.424   2.891  -0.928  0.00  0.00     0.037 A 
ATOM     16  C   UNL d   1       5.043   2.670  -0.799  0.00  0.00     0.016 A 
BRANCH  14  17
ATOM     17  O   UNL d   1       8.600   2.131  -1.405  0.00  0.00    -0.361 OA
ATOM     18  H   UNL d   1       9.084   1.340  -1.692  0.00  0.00     0.217 HD
ENDBRANCH  14  17
ENDBRANCH   8  11
ENDBRANCH   4   7
ENDBRANCH   2   3
ENDBRANCH   1   2
BRANCH   1  19
ATOM     19  C   UNL d   1      -3.861   3.485  -2.324  0.00  0.00     0.105 C 
BRANCH  19  20
ATOM     20  C   UNL d   1      -4.502   4.670  -3.088  0.00  0.00     0.237 C 
ATOM     21  O   UNL d   1      -3.845   5.542  -3.656  0.00  0.00    -0.272 OA
ATOM     22  N   UNL d   1      -5.878   4.621  -3.053  0.00  0.00    -0.247 N 
ATOM     23  H   UNL d   1      -6.228   3.842  -2.544  0.00  0.00     0.192 HD
BRANCH  22  24
ATOM     24  N   UNL d   1      -6.705   5.535  -3.650  0.00  0.00    -0.176 NA
ATOM     25  C   UNL d   1      -8.013   5.471  -3.584  0.00  0.00     0.064 C 
BRANCH  25  26
ATOM     26  C   UNL d   1      -8.887   4.404  -2.890  0.00  0.00     0.057 C 
ATOM     27  C   UNL d   1      -8.184   3.270  -2.181  0.00  0.00     0.011 C 
ENDBRANCH  25  26
BRANCH  25  28
ATOM     28  C   UNL d   1      -8.806   6.541  -4.328  0.00  0.00    -0.010 A 
ATOM     29  C   UNL d   1      -8.381   6.939  -5.605  0.00  0.00     0.016 A 
ATOM     30  C   UNL d   1      -9.117   7.872  -6.357  0.00  0.00     0.037 A 
ATOM     31  C   UNL d   1     -10.277   8.424  -5.825  0.00  0.00     0.065 A 
ATOM     32  C   UNL d   1     -10.701   8.066  -4.551  0.00  0.00     0.037 A 
ATOM     33  C   UNL d   1      -9.973   7.123  -3.804  0.00  0.00     0.016 A 
BRANCH  31  34
ATOM     34  O   UNL d   1     -11.040   9.321  -6.514  0.00  0.00    -0.361 OA
ATOM     35  H   UNL d   1     -10.650   9.475  -7.391  0.00  0.00     0.217 HD
ENDBRANCH  31  34
ENDBRANCH  25  28
ENDBRANCH  22  24
ENDBRANCH  19  20
ENDBRANCH   1  19
TORSDOF 12
