REMARK  9 active torsions:
REMARK  status: ('A' for Active; 'I' for Inactive)
REMARK    1  A    between atoms: C_2  and  C_3 
REMARK    2  A    between atoms: C_6  and  C_7 
REMARK    3  A    between atoms: C_10  and  S_11 
REMARK    4  A    between atoms: S_11  and  C_12 
REMARK    5  A    between atoms: C_12  and  C_13 
REMARK       I    between atoms: C_13  and  N_15 
REMARK    6  A    between atoms: N_15  and  CA_16 
REMARK    7  A    between atoms: CA_16  and  CB_17 
REMARK    8  A    between atoms: CA_16  and  C_27 
REMARK    9  A    between atoms: CB_17  and  CG_18 
ROOT
ATOM      1  C   UNK d   0       4.112   9.290   1.300  0.00  0.00     0.228 C 
ATOM      2  O   UNK d   0       5.362   9.231   1.077  0.00  0.00    -0.273 OA
ATOM      3  N   TRP d   1       3.396  10.248   0.664  0.00  0.00    -0.346 N 
ATOM      4  H   TRP d   1       2.486  10.569   1.058  0.00  0.00     0.163 HD
ENDROOT
BRANCH   1   5
ATOM      5  C   UNK d   0       3.417   8.253   2.229  0.00  0.00     0.185 C 
BRANCH   5   6
ATOM      6  S   UNK d   0       4.671   6.949   2.684  0.00  0.00    -0.081 SA
BRANCH   6   7
ATOM      7  C   UNK d   0       3.857   5.791   3.633  0.00  0.00     0.183 C 
ATOM      8  N   UNK d   0       2.646   5.779   4.090  0.00  0.00    -0.152 NA
ATOM      9  N   UNK d   0       2.532   4.559   4.700  0.00  0.00    -0.284 N 
ATOM     10  C   UNK d   0       3.606   3.628   4.439  0.00  0.00     0.235 C 
ATOM     11  H   UNK d   0       1.716   4.297   5.241  0.00  0.00     0.185 HD
ATOM     12  N   UNK d   0       4.578   4.598   3.948  0.00  0.00    -0.342 N 
ATOM     13  H   UNK d   0       5.561   4.465   3.785  0.00  0.00     0.164 HD
BRANCH  10  14
ATOM     14  C   UNK d   0       3.326   2.637   3.321  0.00  0.00    -0.015 A 
ATOM     15  C   UNK d   0       3.424   1.247   3.514  0.00  0.00     0.011 A 
ATOM     16  C   UNK d   0       3.280   0.362   2.435  0.00  0.00     0.007 A 
ATOM     17  C   UNK d   0       2.939   0.846   1.167  0.00  0.00    -0.059 A 
ATOM     18  C   UNK d   0       2.842   2.222   0.966  0.00  0.00     0.007 A 
ATOM     19  C   UNK d   0       3.015   3.097   2.028  0.00  0.00     0.011 A 
BRANCH  17  20
ATOM     20  C   UNK d   0       2.477  -0.071   0.064  0.00  0.00     0.034 C 
ATOM     21  C   UNK d   0       0.950  -0.075   0.046  0.00  0.00     0.010 C 
ENDBRANCH  17  20
ENDBRANCH  10  14
ENDBRANCH   6   7
ENDBRANCH   5   6
ENDBRANCH   1   5
BRANCH   3  22
ATOM     22  CA  TRP d   1       4.035  11.355  -0.204  0.00  0.00     0.186 C 
BRANCH  22  23
ATOM     23  CB  TRP d   1       4.799  10.957  -1.760  0.00  0.00     0.053 C 
BRANCH  23  24
ATOM     24  CG  TRP d   1       6.083   9.759  -2.161  0.00  0.00     0.022 C 
ATOM     25  CD1 TRP d   1       5.290   8.627  -2.166  0.00  0.00     0.093 C 
ATOM     26  NE1 TRP d   1       6.179   7.897  -1.422  0.00  0.00    -0.285 NA
ATOM     27  CE2 TRP d   1       7.056   7.518  -2.395  0.00  0.00     0.015 A 
ATOM     28  HE1 TRP d   1       6.581   8.242  -0.560  0.00  0.00     0.128 HD
ATOM     29  CZ2 TRP d   1       7.457   6.189  -2.625  0.00  0.00     0.024 A 
ATOM     30  CD2 TRP d   1       7.155   8.723  -3.138  0.00  0.00    -0.025 A 
ATOM     31  CH2 TRP d   1       8.075   5.811  -3.785  0.00  0.00     0.002 A 
ATOM     32  CZ3 TRP d   1       8.255   6.828  -4.707  0.00  0.00     0.001 A 
ATOM     33  CE3 TRP d   1       7.836   8.280  -4.433  0.00  0.00     0.010 A 
ENDBRANCH  23  24
ENDBRANCH  22  23
BRANCH  22  34
ATOM     34  C   TRP d   1       2.848  12.514  -0.331  0.00  0.00     0.196 C 
ATOM     35  O   TRP d   1       1.786  12.246   0.332  0.00  0.00    -0.646 OA
ATOM     36  OXT TRP d   1       3.138  13.549  -0.989  0.00  0.00    -0.646 OA
ENDBRANCH  22  34
ENDBRANCH   3  22
TORSDOF 9
