@<TRIPOS>MOLECULE
*****
 63 66 0 0 0
SMALL
GASTEIGER

@<TRIPOS>ATOM
      1 C           8.5866  -10.3652    8.8515 C.3     1  UNL1       -0.0639
      2 C           8.3364  -11.3663    7.7321 C.3     1  UNL1       -0.0399
      3 C           9.6377  -12.0017    7.2306 C.3     1  UNL1        0.0176
      4 N           9.3627  -12.9391    6.1538 N.pl3   1  UNL1       -0.2669
      5 C           8.8938  -12.6620    4.8261 C.2     1  UNL1        0.1771
      6 S           9.0344  -11.0663    4.1970 S.3     1  UNL1       -0.0795
      7 C           8.4272  -11.0558    2.4722 C.3     1  UNL1        0.0774
      8 C           8.5582   -9.6022    1.8921 C.2     1  UNL1        0.2233
      9 O           9.2047   -8.6931    2.4186 O.2     1  UNL1       -0.2749
     10 N           7.9315   -9.3783    0.6879 N.am    1  UNL1       -0.3137
     11 C           8.2079   -8.2541   -0.2265 C.3     1  UNL1        0.0224
     12 C           7.6689   -8.4257   -1.7165 C.3     1  UNL1        0.0276
     13 C           6.4391   -7.5299   -1.7782 C.2     1  UNL1        0.0165
     14 C           5.3097   -7.7941   -1.1140 C.ar    1  UNL1        0.0515
     15 C           4.8617   -8.9533   -0.4215 C.ar    1  UNL1       -0.0481
     16 C           3.7970   -8.8635    0.3752 C.ar    1  UNL1       -0.0608
     17 C           3.0888   -7.6082    0.5320 C.ar    1  UNL1       -0.0555
     18 C           3.4382   -6.4647   -0.0976 C.ar    1  UNL1        0.0098
     19 C           4.6163   -6.5063   -0.9846 C.ar    1  UNL1        0.2086
     20 N           5.2184   -5.5694   -1.6314 N.2     1  UNL1       -0.2369
     21 C           6.4467   -6.1064   -2.2752 C.3     1  UNL1        0.1667
     22 C           7.3941   -9.8725   -2.1675 C.ar    1  UNL1       -0.0383
     23 C           7.9742  -10.9835   -1.5248 C.ar    1  UNL1       -0.0545
     24 C           7.5817  -12.2860   -1.7926 C.ar    1  UNL1       -0.0197
     25 C           6.6929  -12.5304   -2.8202 C.ar    1  UNL1        0.1201
     26 O           6.5229  -13.8544   -3.0914 O.3     1  UNL1       -0.4951
     27 C           5.8472  -14.1354   -4.3055 C.3     1  UNL1        0.0788
     28 C           6.1114  -11.4587   -3.4985 C.ar    1  UNL1       -0.0197
     29 C           6.4823  -10.1429   -3.2003 C.ar    1  UNL1       -0.0545
     30 N           8.4066  -13.7235    4.2556 N.2     1  UNL1       -0.1609
     31 N           8.4745  -14.6919    5.2439 N.pl3   1  UNL1       -0.2229
     32 C           9.4462  -14.3785    6.2620 C.3     1  UNL1        0.2095
     33 O           9.0832  -14.8120    7.5357 O.3     1  UNL1       -0.3579
     34 H           7.6439   -9.9115    9.1765 H       1  UNL1        0.0230
     35 H           9.2479   -9.5594    8.5170 H       1  UNL1        0.0230
     36 H           9.0442  -10.8495    9.7196 H       1  UNL1        0.0230
     37 H           7.8223  -10.8502    6.9147 H       1  UNL1        0.0278
     38 H           7.6482  -12.1425    8.0877 H       1  UNL1        0.0278
     39 H          10.1262  -12.5277    8.0601 H       1  UNL1        0.0465
     40 H          10.3383  -11.2382    6.8811 H       1  UNL1        0.0465
     41 H           7.3816  -11.3790    2.4173 H       1  UNL1        0.0475
     42 H           9.0279  -11.7294    1.8452 H       1  UNL1        0.0475
     43 H           7.1532   -9.9812    0.4634 H       1  UNL1        0.1487
     44 H           9.2820   -8.0360   -0.2529 H       1  UNL1        0.0471
     45 H           7.7468   -7.3782    0.2519 H       1  UNL1        0.0471
     46 H           8.4099   -8.0173   -2.4192 H       1  UNL1        0.0412
     47 H           5.3585   -9.9047   -0.5505 H       1  UNL1        0.0626
     48 H           3.4543   -9.7500    0.9039 H       1  UNL1        0.0618
     49 H           2.2318   -7.6473    1.2002 H       1  UNL1        0.0620
     50 H           2.8820   -5.5509    0.0679 H       1  UNL1        0.0683
     51 H           4.9037   -4.6033   -1.6409 H       1  UNL1        0.4459
     52 H           7.3061   -5.5279   -1.9259 H       1  UNL1        0.1077
     53 H           6.3262   -6.0249   -3.3610 H       1  UNL1        0.1077
     54 H           8.7312  -10.8903   -0.7542 H       1  UNL1        0.0622
     55 H           8.0023  -13.1103   -1.2205 H       1  UNL1        0.0654
     56 H           5.9318  -15.2070   -4.4953 H       1  UNL1        0.0660
     57 H           6.2955  -13.6055   -5.1547 H       1  UNL1        0.0660
     58 H           4.7909  -13.8806   -4.1907 H       1  UNL1        0.0660
     59 H           5.3636  -11.6175   -4.2695 H       1  UNL1        0.0654
     60 H           6.0223   -9.3425   -3.7760 H       1  UNL1        0.0622
     61 H           8.3335  -15.6694    5.0027 H       1  UNL1        0.1725
     62 H          10.4633  -14.7128    6.0205 H       1  UNL1        0.1049
     63 H           8.1296  -14.6708    7.6128 H       1  UNL1        0.2134
@<TRIPOS>UNITY_ATOM_ATTR
20 1
charge 1
@<TRIPOS>BOND
     1     1     2    1
     2     2     3    1
     3     3     4    1
     4     4     5    1
     5     5     6    1
     6     6     7    1
     7     7     8    1
     8     8     9    2
     9     8    10   am
    10    10    11    1
    11    13    14    2
    12    14    15   ar
    13    15    16   ar
    14    16    17   ar
    15    17    18   ar
    16    18    19   ar
    17    14    19   ar
    18    19    20    2
    19    20    21    1
    20    13    21    1
    21    12    22    1
    22    22    23   ar
    23    23    24   ar
    24    24    25   ar
    25    25    26    1
    26    26    27    1
    27    25    28   ar
    28    28    29   ar
    29    22    29   ar
    30     5    30    2
    31    30    31    1
    32    31    32    1
    33     4    32    1
    34    12    13    1
    35    12    11    1
    36    32    33    1
    37     1    34    1
    38     1    35    1
    39     1    36    1
    40     2    37    1
    41     2    38    1
    42     3    39    1
    43     3    40    1
    44     7    41    1
    45     7    42    1
    46    10    43    1
    47    11    44    1
    48    11    45    1
    49    12    46    1
    50    15    47    1
    51    16    48    1
    52    17    49    1
    53    18    50    1
    54    20    51    1
    55    21    52    1
    56    21    53    1
    57    23    54    1
    58    24    55    1
    59    27    56    1
    60    27    57    1
    61    27    58    1
    62    28    59    1
    63    29    60    1
    64    31    61    1
    65    32    62    1
    66    33    63    1
