@<TRIPOS>MOLECULE
*****
 39 41 0 0 0
SMALL
GASTEIGER

@<TRIPOS>ATOM
      1 O           1.0939    0.1165   -0.1051 O.2     1  UNL1       -0.2507
      2 C           2.3233    0.0846   -0.0218 C.2     1  UNL1        0.3228
      3 N           3.0213   -0.3969    1.0451 N.am    1  UNL1       -0.1781
      4 O           2.3064   -0.8835    2.1646 O.3     1  UNL1       -0.2740
      5 C           3.2385   -1.3190    3.1526 C.3     1  UNL1        0.0983
      6 C           2.5516   -1.8745    4.3717 C.ar    1  UNL1       -0.0197
      7 C           1.9707   -1.0230    5.3212 C.ar    1  UNL1       -0.0563
      8 C           1.5147   -1.5348    6.5381 C.ar    1  UNL1       -0.0614
      9 C           1.5492   -2.9080    6.7769 C.ar    1  UNL1       -0.0617
     10 C           2.0662   -3.7690    5.8119 C.ar    1  UNL1       -0.0614
     11 C           2.5685   -3.2547    4.6168 C.ar    1  UNL1       -0.0563
     12 N           3.0908    0.5879   -1.0512 N.am    1  UNL1       -0.2944
     13 C           4.5227    0.6018   -1.1333 C.3     1  UNL1        0.0321
     14 C           5.3142    1.2074   -2.2567 C.3     1  UNL1       -0.0254
     15 C           5.2486   -0.2970   -2.1183 C.3     1  UNL1        0.0044
     16 C           4.4717   -1.1312   -3.1201 C.ar    1  UNL1       -0.0398
     17 C           4.5611   -2.5365   -3.1361 C.ar    1  UNL1       -0.0581
     18 C           3.8892   -3.2986   -4.1018 C.ar    1  UNL1       -0.0588
     19 C           3.0499   -2.6752   -5.0214 C.ar    1  UNL1       -0.0264
     20 C           2.9355   -1.2972   -5.0050 C.ar    1  UNL1        0.1237
     21 F           2.1524   -0.6731   -5.8934 F       1  UNL1       -0.2055
     22 C           3.6407   -0.5391   -4.0854 C.ar    1  UNL1       -0.0229
     23 H           4.0259   -0.4619    1.0496 H       1  UNL1        0.1841
     24 H           3.8793   -0.4813    3.4591 H       1  UNL1        0.0634
     25 H           3.8941   -2.0862    2.7201 H       1  UNL1        0.0634
     26 H           1.8915    0.0448    5.1274 H       1  UNL1        0.0621
     27 H           1.1460   -0.8612    7.3075 H       1  UNL1        0.0618
     28 H           1.1678   -3.3073    7.7128 H       1  UNL1        0.0618
     29 H           2.0997   -4.8392    5.9972 H       1  UNL1        0.0618
     30 H           2.9903   -3.9365    3.8822 H       1  UNL1        0.0621
     31 H           2.5316    0.8936   -1.8409 H       1  UNL1        0.1506
     32 H           4.9869    0.8068   -0.1738 H       1  UNL1        0.0505
     33 H           6.2605    1.6825   -2.0111 H       1  UNL1        0.0290
     34 H           4.8235    1.7176   -3.0733 H       1  UNL1        0.0290
     35 H           6.1693   -0.7563   -1.7603 H       1  UNL1        0.0367
     36 H           5.1626   -3.0546   -2.3901 H       1  UNL1        0.0620
     37 H           4.0230   -4.3769   -4.1385 H       1  UNL1        0.0619
     38 H           2.4839   -3.2478   -5.7466 H       1  UNL1        0.0646
     39 H           3.5132    0.5352   -4.1315 H       1  UNL1        0.0649
@<TRIPOS>BOND
     1     1     2    2
     2     2     3   am
     3     3     4    1
     4     4     5    1
     5     5     6    1
     6     6     7   ar
     7     7     8   ar
     8     8     9   ar
     9     9    10   ar
    10    10    11   ar
    11     6    11   ar
    12     2    12   am
    13    12    13    1
    14    13    14    1
    15    14    15    1
    16    13    15    1
    17    15    16    1
    18    16    17   ar
    19    17    18   ar
    20    18    19   ar
    21    19    20   ar
    22    20    21    1
    23    20    22   ar
    24    16    22   ar
    25     3    23    1
    26     5    24    1
    27     5    25    1
    28     7    26    1
    29     8    27    1
    30     9    28    1
    31    10    29    1
    32    11    30    1
    33    12    31    1
    34    13    32    1
    35    14    33    1
    36    14    34    1
    37    15    35    1
    38    17    36    1
    39    18    37    1
    40    19    38    1
    41    22    39    1
