@<TRIPOS>MOLECULE
*****
 52 53 0 0 0
SMALL
GASTEIGER

@<TRIPOS>ATOM
      1 C           0.9213    0.0002   -0.0191 C.3     1  UNL1       -0.0281
      2 C           2.4504    0.0437   -0.0155 C.3     1  UNL1        0.0946
      3 C           2.7988    1.2320    0.8860 C.3     1  UNL1       -0.0281
      4 O           2.9176   -1.2792    0.3694 O.3     1  UNL1       -0.4894
      5 C           4.2677   -1.5090    0.4448 C.ar    1  UNL1        0.1211
      6 C           4.8252   -2.6976    0.0095 C.ar    1  UNL1       -0.0199
      7 C           6.1839   -2.9604    0.2777 C.ar    1  UNL1       -0.0580
      8 C           7.0130   -1.9970    0.9002 C.ar    1  UNL1       -0.0579
      9 C           6.4660   -0.7946    1.3579 C.ar    1  UNL1       -0.0351
     10 C           7.2539    0.2914    2.1129 C.3     1  UNL1        0.0506
     11 C           6.4873    1.5846    2.5613 C.2     1  UNL1        0.2334
     12 O           5.2827    1.8115    2.4110 O.2     1  UNL1       -0.2739
     13 N           7.1748    2.5945    3.1972 N.am    1  UNL1       -0.2329
     14 N           6.3838    3.7362    3.5801 N.am    1  UNL1       -0.2182
     15 C           6.9570    4.7722    4.2653 C.2     1  UNL1        0.3160
     16 O           8.1454    4.7654    4.5912 O.2     1  UNL1       -0.2513
     17 N           6.1121    5.8231    4.5625 N.am    1  UNL1       -0.2982
     18 C           6.6307    6.9850    5.2740 C.3     1  UNL1        0.0147
     19 C           5.5898    8.0737    5.5318 C.3     1  UNL1       -0.0191
     20 C           6.1753    9.2645    6.3005 C.3     1  UNL1        0.0296
     21 N           5.1772   10.3304    6.5381 N.ar    1  UNL1       -0.2957
     22 C           5.4291   11.7023    6.5062 C.ar    1  UNL1        0.0732
     23 C           4.2453   12.3326    6.7733 C.ar    1  UNL1        0.1870
     24 N           3.3194   11.3396    6.9780 N.ar    1  UNL1       -0.2011
     25 C           3.8864   10.1363    6.8593 C.ar    1  UNL1        0.2463
     26 C           5.0918   -0.6631    1.1677 C.ar    1  UNL1       -0.0163
     27 H           0.5072    0.9669   -0.3311 H       1  UNL1        0.0265
     28 H           0.5396   -0.2175    0.9865 H       1  UNL1        0.0265
     29 H           0.5458   -0.7749   -0.6886 H       1  UNL1        0.0265
     30 H           2.8052    0.2490   -1.0316 H       1  UNL1        0.0727
     31 H           2.6511    0.9909    1.9469 H       1  UNL1        0.0265
     32 H           2.2236    2.1330    0.6548 H       1  UNL1        0.0265
     33 H           3.8265    1.5404    0.6987 H       1  UNL1        0.0265
     34 H           4.2115   -3.4394   -0.4942 H       1  UNL1        0.0654
     35 H           6.5913   -3.9391    0.0244 H       1  UNL1        0.0619
     36 H           8.0636   -2.2360    1.0562 H       1  UNL1        0.0620
     37 H           8.0872    0.6057    1.4707 H       1  UNL1        0.0407
     38 H           7.6676   -0.1750    3.0139 H       1  UNL1        0.0407
     39 H           8.1463    2.5738    3.4915 H       1  UNL1        0.1728
     40 H           5.4030    3.6851    3.2991 H       1  UNL1        0.1744
     41 H           5.1487    5.7836    4.2551 H       1  UNL1        0.1503
     42 H           7.4646    7.3916    4.6902 H       1  UNL1        0.0463
     43 H           7.0401    6.6296    6.2272 H       1  UNL1        0.0463
     44 H           4.7580    7.6437    6.1002 H       1  UNL1        0.0297
     45 H           5.1700    8.4310    4.5841 H       1  UNL1        0.0297
     46 H           7.0083    9.7045    5.7382 H       1  UNL1        0.0494
     47 H           6.5582    8.9553    7.2802 H       1  UNL1        0.0494
     48 H           6.4228   12.0588    6.2911 H       1  UNL1        0.0871
     49 H           3.9344   13.3602    6.8484 H       1  UNL1        0.1392
     50 H           2.3362   11.4859    7.1973 H       1  UNL1        0.4538
     51 H           3.3815    9.1868    6.9869 H       1  UNL1        0.1600
     52 H           4.5867    0.0884    1.7214 H       1  UNL1        0.0657
@<TRIPOS>UNITY_ATOM_ATTR
24 1
charge 1
@<TRIPOS>BOND
     1     1     2    1
     2     2     3    1
     3     2     4    1
     4     4     5    1
     5     5     6   ar
     6     6     7   ar
     7     7     8   ar
     8     8     9   ar
     9     9    10    1
    10    10    11    1
    11    11    12    2
    12    11    13   am
    13    13    14    1
    14    14    15   am
    15    15    16    2
    16    15    17   am
    17    17    18    1
    18    18    19    1
    19    19    20    1
    20    20    21    1
    21    21    22   ar
    22    22    23   ar
    23    23    24   ar
    24    24    25   ar
    25    21    25   ar
    26     9    26   ar
    27     5    26   ar
    28     1    27    1
    29     1    28    1
    30     1    29    1
    31     2    30    1
    32     3    31    1
    33     3    32    1
    34     3    33    1
    35     6    34    1
    36     7    35    1
    37     8    36    1
    38    10    37    1
    39    10    38    1
    40    13    39    1
    41    14    40    1
    42    17    41    1
    43    18    42    1
    44    18    43    1
    45    19    44    1
    46    19    45    1
    47    20    46    1
    48    20    47    1
    49    22    48    1
    50    23    49    1
    51    24    50    1
    52    25    51    1
    53    26    52    1
