@<TRIPOS>MOLECULE
*****
 41 42 0 0 0
SMALL
GASTEIGER

@<TRIPOS>ATOM
      1 C           1.0558   -0.0211    0.0492 C.3     1  UNL1        0.0833
      2 O           2.4944   -0.0296    0.0387 O.3     1  UNL1       -0.4535
      3 C           3.0225   -0.9621   -0.8039 C.2     1  UNL1        0.4043
      4 O           2.3257   -1.7170   -1.4838 O.2     1  UNL1       -0.2261
      5 N           4.3996   -0.9824   -0.7405 N.am    1  UNL1       -0.2512
      6 C           5.1904   -1.8723   -1.5014 C.ar    1  UNL1        0.0365
      7 C           6.3087   -2.5017   -0.9517 C.ar    1  UNL1       -0.0401
      8 C           7.0764   -3.3986   -1.7298 C.ar    1  UNL1       -0.0553
      9 C           6.7264   -3.7029   -3.0631 C.ar    1  UNL1       -0.0302
     10 C           7.4733   -4.7933   -3.8243 C.3     1  UNL1        0.0373
     11 N           6.9988   -5.0659   -5.1750 N.am    1  UNL1       -0.3035
     12 C           7.5248   -6.0351   -6.0093 C.2     1  UNL1        0.2996
     13 O           8.4442   -6.7932   -5.7413 O.2     1  UNL1       -0.2652
     14 C           6.8254   -6.0982   -7.4001 C.2     1  UNL1        0.3031
     15 O           5.9132   -5.3072   -7.6201 O.2     1  UNL1       -0.2648
     16 N           7.2721   -7.0990   -8.2609 N.am    1  UNL1       -0.2777
     17 C           6.7908   -7.2589   -9.5846 C.ar    1  UNL1        0.0366
     18 C           6.6490   -8.5326  -10.1483 C.ar    1  UNL1       -0.0220
     19 C           6.2418   -8.6639  -11.4859 C.ar    1  UNL1        0.0441
     20 CL          6.1919  -10.2214  -12.2235 Cl      1  UNL1       -0.0834
     21 C           5.9310   -7.5467  -12.2569 C.ar    1  UNL1       -0.0249
     22 C           6.0912   -6.2852  -11.6988 C.ar    1  UNL1        0.0441
     23 CL          5.8343   -4.8849  -12.6664 Cl      1  UNL1       -0.0834
     24 C           6.5143   -6.1388  -10.3764 C.ar    1  UNL1       -0.0220
     25 C           5.6418   -3.0049   -3.6055 C.ar    1  UNL1       -0.0553
     26 C           4.8809   -2.1186   -2.8361 C.ar    1  UNL1       -0.0401
     27 H           0.7079    0.7610    0.7312 H       1  UNL1        0.0661
     28 H           0.6657   -0.9804    0.4089 H       1  UNL1        0.0661
     29 H           0.6571    0.1985   -0.9482 H       1  UNL1        0.0661
     30 H           4.8297   -0.4494    0.0035 H       1  UNL1        0.1582
     31 H           6.5493   -2.3798    0.1025 H       1  UNL1        0.0636
     32 H           7.9419   -3.8763   -1.2698 H       1  UNL1        0.0621
     33 H           7.3846   -5.7317   -3.2623 H       1  UNL1        0.0512
     34 H           8.5378   -4.5417   -3.8897 H       1  UNL1        0.0512
     35 H           6.2027   -4.5683   -5.5567 H       1  UNL1        0.1495
     36 H           7.9171   -7.7863   -7.8786 H       1  UNL1        0.1553
     37 H           6.7978   -9.4301   -9.5529 H       1  UNL1        0.0651
     38 H           5.5895   -7.6546  -13.2834 H       1  UNL1        0.0647
     39 H           6.6746   -5.1381   -9.9850 H       1  UNL1        0.0651
     40 H           5.3355   -3.1251   -4.6373 H       1  UNL1        0.0621
     41 H           4.0466   -1.6110   -3.3136 H       1  UNL1        0.0636
@<TRIPOS>BOND
     1     1     2    1
     2     2     3    1
     3     3     4    2
     4     3     5   am
     5     5     6    1
     6     6     7   ar
     7     7     8   ar
     8     8     9   ar
     9     9    10    1
    10    10    11    1
    11    11    12   am
    12    12    13    2
    13    12    14    1
    14    14    15    2
    15    14    16   am
    16    16    17    1
    17    17    18   ar
    18    18    19   ar
    19    19    20    1
    20    19    21   ar
    21    21    22   ar
    22    22    23    1
    23    22    24   ar
    24    17    24   ar
    25     9    25   ar
    26    25    26   ar
    27     6    26   ar
    28     1    27    1
    29     1    28    1
    30     1    29    1
    31     5    30    1
    32     7    31    1
    33     8    32    1
    34    10    33    1
    35    10    34    1
    36    11    35    1
    37    16    36    1
    38    18    37    1
    39    21    38    1
    40    24    39    1
    41    25    40    1
    42    26    41    1
