@<TRIPOS>MOLECULE
*****
 61 64 0 0 0
SMALL
GASTEIGER

@<TRIPOS>ATOM
      1 C           1.0961    0.0651    0.0634 C.3     1  UNL1       -0.0307
      2 C           2.6164    0.0783    0.0656 C.3     1  UNL1        0.0868
      3 O           3.0607    1.2694    0.7251 O.3     1  UNL1       -0.4922
      4 C           4.4239    1.4290    0.7740 C.ar    1  UNL1        0.1226
      5 C           5.2673    1.1973   -0.3162 C.ar    1  UNL1       -0.0178
      6 C           6.6524    1.4117   -0.2185 C.ar    1  UNL1       -0.0308
      7 C           7.1794    1.8960    0.9873 C.ar    1  UNL1        0.0902
      8 N           8.4755    2.1851    1.3380 N.ar    1  UNL1       -0.2220
      9 C           8.4170    2.6323    2.5734 C.ar    1  UNL1        0.1680
     10 S           9.8030    3.1159    3.4795 S.3     1  UNL1       -0.0754
     11 C           9.3183    3.5991    5.1912 C.3     1  UNL1        0.0862
     12 C           8.6579    2.4334    5.9162 C.3     1  UNL1       -0.0444
     13 C          10.6079    4.0357    5.9590 C.2     1  UNL1        0.2303
     14 O          11.7178    4.0199    5.4232 O.2     1  UNL1       -0.2743
     15 N          10.4504    4.4162    7.2969 N.am    1  UNL1       -0.2846
     16 C          11.5277    4.9164    8.0819 C.ar    1  UNL1        0.0335
     17 C          11.6166    4.6558    9.4521 C.ar    1  UNL1       -0.0398
     18 C          12.5985    5.3102   10.2311 C.ar    1  UNL1       -0.0479
     19 C          13.5070    6.2239    9.6501 C.ar    1  UNL1        0.0371
     20 C          14.5058    6.9596   10.5084 C.2     1  UNL1        0.2483
     21 O          14.2772    7.0690   11.7191 O.2     1  UNL1       -0.2699
     22 N          15.6794    7.3916    9.9066 N.am    1  UNL1       -0.2786
     23 C          16.8967    7.6210   10.5993 C.ar    1  UNL1        0.0758
     24 C          17.5174    8.8679   10.3715 C.ar    1  UNL1       -0.0369
     25 C          18.7532    9.1870   10.9478 C.ar    1  UNL1       -0.0598
     26 C          19.3768    8.2715   11.7831 C.ar    1  UNL1       -0.0582
     27 C          18.7905    7.0211   11.9876 C.ar    1  UNL1       -0.0181
     28 C          17.5635    6.6635   11.3904 C.ar    1  UNL1        0.1412
     29 O          17.2639    5.3469   11.6379 O.3     1  UNL1       -0.4933
     30 C          16.1890    4.7212   10.9673 C.3     1  UNL1        0.0789
     31 C          13.4736    6.3864    8.2695 C.ar    1  UNL1       -0.0479
     32 C          12.4870    5.7534    7.5060 C.ar    1  UNL1       -0.0398
     33 N           7.1302    2.6673    3.0229 N.ar    1  UNL1       -0.3328
     34 C           6.3142    2.1617    2.0410 C.ar    1  UNL1        0.0703
     35 C           4.9343    1.9385    1.9767 C.ar    1  UNL1        0.0055
     36 H           0.7160   -0.8444   -0.4122 H       1  UNL1        0.0262
     37 H           0.7046    0.9314   -0.4808 H       1  UNL1        0.0262
     38 H           0.7024    0.1216    1.0830 H       1  UNL1        0.0262
     39 H           2.9534    0.0385   -0.9746 H       1  UNL1        0.0694
     40 H           2.9881   -0.8001    0.6059 H       1  UNL1        0.0694
     41 H           4.8709    0.8760   -1.2739 H       1  UNL1        0.0655
     42 H           7.3056    1.2257   -1.0643 H       1  UNL1        0.0641
     43 H           8.6485    4.4644    5.1259 H       1  UNL1        0.0509
     44 H           9.3493    1.5920    6.0239 H       1  UNL1        0.0245
     45 H           7.7637    2.0641    5.4133 H       1  UNL1        0.0245
     46 H           8.3344    2.7294    6.9183 H       1  UNL1        0.0245
     47 H           9.5693    4.2729    7.7744 H       1  UNL1        0.1548
     48 H          10.9700    3.9187    9.9266 H       1  UNL1        0.0636
     49 H          12.6558    5.0942   11.2999 H       1  UNL1        0.0626
     50 H          15.7266    7.5479    8.9094 H       1  UNL1        0.1552
     51 H          17.0136    9.6367    9.7893 H       1  UNL1        0.0637
     52 H          19.2219   10.1504   10.7571 H       1  UNL1        0.0618
     53 H          20.3156    8.5225   12.2722 H       1  UNL1        0.0619
     54 H          19.3135    6.2936   12.6063 H       1  UNL1        0.0655
     55 H          16.1651    3.6539   11.1944 H       1  UNL1        0.0660
     56 H          16.2465    4.8423    9.8795 H       1  UNL1        0.0660
     57 H          15.2544    5.0545   11.3960 H       1  UNL1        0.0660
     58 H          14.1681    7.0310    7.7480 H       1  UNL1        0.0626
     59 H          12.4494    5.9847    6.4454 H       1  UNL1        0.0636
     60 H           6.8167    2.9962    3.9186 H       1  UNL1        0.1679
     61 H           4.2816    2.1481    2.8166 H       1  UNL1        0.0675
@<TRIPOS>BOND
     1     1     2    1
     2     2     3    1
     3     3     4    1
     4     4     5   ar
     5     5     6   ar
     6     6     7   ar
     7     7     8   ar
     8     8     9   ar
     9     9    10    1
    10    10    11    1
    11    11    12    1
    12    11    13    1
    13    13    14    2
    14    13    15   am
    15    15    16    1
    16    16    17   ar
    17    17    18   ar
    18    18    19   ar
    19    19    20    1
    20    20    21    2
    21    20    22   am
    22    22    23    1
    23    23    24   ar
    24    24    25   ar
    25    25    26   ar
    26    26    27   ar
    27    27    28   ar
    28    23    28   ar
    29    28    29    1
    30    29    30    1
    31    19    31   ar
    32    31    32   ar
    33    16    32   ar
    34     9    33   ar
    35    33    34   ar
    36     7    34   ar
    37    34    35   ar
    38     4    35   ar
    39     1    36    1
    40     1    37    1
    41     1    38    1
    42     2    39    1
    43     2    40    1
    44     5    41    1
    45     6    42    1
    46    11    43    1
    47    12    44    1
    48    12    45    1
    49    12    46    1
    50    15    47    1
    51    17    48    1
    52    18    49    1
    53    22    50    1
    54    24    51    1
    55    25    52    1
    56    26    53    1
    57    27    54    1
    58    30    55    1
    59    30    56    1
    60    30    57    1
    61    31    58    1
    62    32    59    1
    63    33    60    1
    64    35    61    1
