@<TRIPOS>MOLECULE
*****
 38 38 0 0 0
SMALL
GASTEIGER

@<TRIPOS>ATOM
      1 C           1.0697   -0.0403    0.0180 C.3     1  UNL1       -0.0653
      2 C           2.5887   -0.0397    0.0159 C.3     1  UNL1       -0.0556
      3 C           3.1277   -1.0309    1.0368 C.3     1  UNL1       -0.0493
      4 C           4.6597   -1.0581    1.0400 C.3     1  UNL1       -0.0277
      5 C           5.1195   -2.0472    2.0788 C.ar    1  UNL1       -0.0472
      6 C           5.0266   -3.4213    1.8401 C.ar    1  UNL1       -0.0568
      7 C           5.1760   -4.3318    2.8936 C.ar    1  UNL1       -0.0406
      8 C           5.5375   -3.9078    4.1797 C.ar    1  UNL1        0.0271
      9 N           5.6494   -4.8456    5.2098 N.pl3   1  UNL1       -0.3434
     10 C           6.2138   -4.4441    6.4991 C.3     1  UNL1        0.0174
     11 C           6.4999   -5.6354    7.4116 C.3     1  UNL1        0.0406
     12 C           6.9769   -5.1362    8.7650 C.2     1  UNL1        0.2278
     13 O           7.0995   -3.9394    9.0440 O.2     1  UNL1       -0.2745
     14 N           7.2926   -6.1376    9.6758 N.am    1  UNL1       -0.2535
     15 N           7.6385   -5.7764   11.0028 N.3     1  UNL1       -0.2544
     16 C           5.6628   -2.5275    4.3879 C.ar    1  UNL1       -0.0406
     17 C           5.4653   -1.6068    3.3554 C.ar    1  UNL1       -0.0568
     18 H           0.6899    0.6713   -0.7202 H       1  UNL1        0.0230
     19 H           0.6806    0.2435    1.0013 H       1  UNL1        0.0230
     20 H           0.6799   -1.0331   -0.2299 H       1  UNL1        0.0230
     21 H           2.9546    0.9670    0.2463 H       1  UNL1        0.0263
     22 H           2.9524   -0.3033   -0.9833 H       1  UNL1        0.0263
     23 H           2.7337   -2.0318    0.8149 H       1  UNL1        0.0268
     24 H           2.7558   -0.7687    2.0369 H       1  UNL1        0.0268
     25 H           5.0516   -0.0582    1.2655 H       1  UNL1        0.0313
     26 H           5.0477   -1.3348    0.0528 H       1  UNL1        0.0313
     27 H           4.7798   -3.7860    0.8453 H       1  UNL1        0.0621
     28 H           4.9741   -5.3814    2.6976 H       1  UNL1        0.0636
     29 H           5.7712   -5.8073    4.9130 H       1  UNL1        0.1461
     30 H           5.4890   -3.7849    6.9912 H       1  UNL1        0.0466
     31 H           7.1450   -3.8785    6.3578 H       1  UNL1        0.0466
     32 H           7.2759   -6.2739    6.9729 H       1  UNL1        0.0374
     33 H           5.5950   -6.2384    7.5447 H       1  UNL1        0.0374
     34 H           7.0863   -7.1145    9.4761 H       1  UNL1        0.1687
     35 H           7.6757   -4.7454   11.0344 H       1  UNL1        0.1405
     36 H           8.6018   -6.0683   11.1836 H       1  UNL1        0.1405
     37 H           5.8843   -2.1286    5.3727 H       1  UNL1        0.0636
     38 H           5.5402   -0.5436    3.5713 H       1  UNL1        0.0621
@<TRIPOS>BOND
     1     1     2    1
     2     2     3    1
     3     3     4    1
     4     4     5    1
     5     5     6   ar
     6     6     7   ar
     7     7     8   ar
     8     8     9    1
     9     9    10    1
    10    10    11    1
    11    11    12    1
    12    12    13    2
    13    12    14   am
    14    14    15    1
    15     8    16   ar
    16    16    17   ar
    17     5    17   ar
    18     1    18    1
    19     1    19    1
    20     1    20    1
    21     2    21    1
    22     2    22    1
    23     3    23    1
    24     3    24    1
    25     4    25    1
    26     4    26    1
    27     6    27    1
    28     7    28    1
    29     9    29    1
    30    10    30    1
    31    10    31    1
    32    11    32    1
    33    11    33    1
    34    14    34    1
    35    15    35    1
    36    15    36    1
    37    16    37    1
    38    17    38    1
