REMARK  11 active torsions:
REMARK  status: ('A' for Active; 'I' for Inactive)
REMARK    1  A    between atoms: C_2  and  C_3 
REMARK    2  A    between atoms: C_3  and  O_4 
REMARK    3  A    between atoms: O_4  and  C_5 
REMARK    4  A    between atoms: C_5  and  C_7 
REMARK    5  A    between atoms: C_7  and  C_8 
REMARK    6  A    between atoms: C_8  and  C_9 
REMARK       I    between atoms: C_9  and  N_11 
REMARK    7  A    between atoms: N_11  and  C_12 
REMARK    8  A    between atoms: C_12  and  N_14 
REMARK    9  A    between atoms: N_14  and  C_15 
REMARK   10  A    between atoms: C_19  and  N_20 
REMARK       I    between atoms: N_20  and  C_21 
REMARK   11  A    between atoms: C_21  and  C_23 
ROOT
ATOM      1  N   UNL d   1      11.479   6.290   1.488  0.00  0.00    -0.333 N 
ATOM      2  H   UNL d   1      10.972   7.129   1.737  0.00  0.00     0.168 HD
ENDROOT
BRANCH   1   3
ATOM      3  C   UNL d   1      10.828   5.023   1.493  0.00  0.00     0.178 C 
ATOM      4  S   UNL d   1      11.638   3.595   1.922  0.00  0.00    -0.040 SA
BRANCH   3   5
ATOM      5  N   UNL d   1       9.455   5.049   1.136  0.00  0.00    -0.304 N 
ATOM      6  C   UNL d   1       8.691   3.904   0.834  0.00  0.00     0.224 C 
ATOM      7  O   UNL d   1       9.185   2.838   0.466  0.00  0.00    -0.273 OA
ATOM      8  H   UNL d   1       8.967   5.930   1.217  0.00  0.00     0.171 HD
BRANCH   6   9
ATOM      9  C   UNL d   1       7.166   3.994   0.872  0.00  0.00     0.113 C 
BRANCH   9  10
ATOM     10  C   UNL d   1       6.550   2.587   0.589  0.00  0.00     0.120 C 
BRANCH  10  11
ATOM     11  C   UNL d   1       5.031   2.616   0.596  0.00  0.00     0.259 C 
ATOM     12  O   UNL d   1       4.382   3.615   0.801  0.00  0.00    -0.265 OA
BRANCH  11  13
ATOM     13  O   UNL d   1       4.497   1.372   0.341  0.00  0.00    -0.321 OA
BRANCH  13  14
ATOM     14  C   UNL d   1       3.053   1.359   0.338  0.00  0.00     0.178 C 
BRANCH  14  15
ATOM     15  C   UNL d   1       2.512  -0.044   0.051  0.00  0.00     0.022 C 
ATOM     16  C   UNL d   1       0.986  -0.069   0.046  0.00  0.00     0.007 C 
ENDBRANCH  14  15
ENDBRANCH  13  14
ENDBRANCH  11  13
ENDBRANCH  10  11
ENDBRANCH   9  10
ENDBRANCH   6   9
ENDBRANCH   3   5
ENDBRANCH   1   3
BRANCH   1  17
ATOM     17  C   UNL d   1      12.925   6.406   1.439  0.00  0.00     0.042 C 
ATOM     18  C   UNL d   1      13.664   7.114   2.383  0.00  0.00     0.030 C 
ATOM     19  C   UNL d   1      15.073   7.084   2.314  0.00  0.00     0.005 C 
ATOM     20  C   UNL d   1      15.756   6.372   1.294  0.00  0.00     0.030 C 
ATOM     21  C   UNL d   1      15.044   5.698   0.285  0.00  0.00     0.043 C 
ATOM     22  C   UNL d   1      13.623   5.804   0.358  0.00  0.00    -0.009 C 
ATOM     23  C   UNL d   1      12.783   5.431  -0.815  0.00  0.00     0.053 C 
BRANCH  21  24
ATOM     24  N   UNL d   1      15.783   5.013  -0.789  0.00  0.00    -0.327 N 
ATOM     25  C   UNL d   1      15.271   4.157  -1.775  0.00  0.00     0.221 C 
ATOM     26  O   UNL d   1      14.129   3.700  -1.815  0.00  0.00    -0.273 OA
ATOM     27  H   UNL d   1      16.792   5.086  -0.735  0.00  0.00     0.169 HD
BRANCH  25  28
ATOM     28  C   UNL d   1      16.159   3.647  -2.894  0.00  0.00     0.098 C 
ATOM     29  C   UNL d   1      15.220   2.983  -3.945  0.00  0.00     0.014 C 
ENDBRANCH  25  28
ENDBRANCH  21  24
ENDBRANCH   1  17
TORSDOF 11
