@<TRIPOS>MOLECULE
*****
 30 31 0 0 0
SMALL
GASTEIGER

@<TRIPOS>ATOM
      1 O           1.0512    0.0133   -0.1533 O.2     1  UNL1       -0.2687
      2 C           2.2808    0.0805   -0.1679 C.2     1  UNL1        0.2602
      3 N           2.9998    0.5564   -1.2575 N.am    1  UNL1       -0.2301
      4 N           2.3119    0.9927   -2.4247 N.am    1  UNL1       -0.2301
      5 C           3.0416    1.3571   -3.5506 C.2     1  UNL1        0.2602
      6 O           4.2710    1.3020   -3.5939 O.2     1  UNL1       -0.2687
      7 C           2.2791    1.8391   -4.7482 C.ar    1  UNL1        0.0395
      8 C           1.1868    2.7058   -4.6051 C.ar    1  UNL1       -0.0495
      9 C           0.5356    3.2221   -5.7348 C.ar    1  UNL1       -0.0597
     10 C           0.9578    2.8662   -7.0155 C.ar    1  UNL1       -0.0433
     11 C           2.0401    2.0008   -7.1636 C.ar    1  UNL1        0.0417
     12 CL          2.5418    1.5535   -8.7506 Cl      1  UNL1       -0.0835
     13 C           2.7134    1.4999   -6.0419 C.ar    1  UNL1       -0.0312
     14 C           3.0701   -0.3786    1.0204 C.ar    1  UNL1        0.0409
     15 C           2.6648   -1.5192    1.7394 C.ar    1  UNL1       -0.0494
     16 C           3.4000   -1.9660    2.8496 C.ar    1  UNL1       -0.0583
     17 C           4.5248   -1.2583    3.2671 C.ar    1  UNL1       -0.0264
     18 C           4.8990   -0.1110    2.5758 C.ar    1  UNL1        0.1241
     19 F           5.9689    0.5801    2.9910 F       1  UNL1       -0.2055
     20 C           4.1879    0.3363    1.4613 C.ar    1  UNL1       -0.0143
     21 H           4.0160    0.5159   -1.3260 H       1  UNL1        0.1731
     22 H           1.2956    0.9292   -2.3983 H       1  UNL1        0.1731
     23 H           0.8582    3.0262   -3.6204 H       1  UNL1        0.0625
     24 H          -0.2950    3.9154   -5.6181 H       1  UNL1        0.0618
     25 H           0.4484    3.2718   -7.8883 H       1  UNL1        0.0632
     26 H           3.5750    0.8506   -6.1807 H       1  UNL1        0.0640
     27 H           1.7782   -2.0743    1.4368 H       1  UNL1        0.0625
     28 H           3.0980   -2.8628    3.3885 H       1  UNL1        0.0619
     29 H           5.1060   -1.5855    4.1257 H       1  UNL1        0.0646
     30 H           4.5036    1.2532    0.9767 H       1  UNL1        0.0654
@<TRIPOS>BOND
     1     1     2    2
     2     2     3   am
     3     3     4    1
     4     4     5   am
     5     5     6    2
     6     5     7    1
     7     7     8   ar
     8     8     9   ar
     9     9    10   ar
    10    10    11   ar
    11    11    12    1
    12    11    13   ar
    13     7    13   ar
    14     2    14    1
    15    14    15   ar
    16    15    16   ar
    17    16    17   ar
    18    17    18   ar
    19    18    19    1
    20    18    20   ar
    21    14    20   ar
    22     3    21    1
    23     4    22    1
    24     8    23    1
    25     9    24    1
    26    10    25    1
    27    13    26    1
    28    15    27    1
    29    16    28    1
    30    17    29    1
    31    20    30    1
