@<TRIPOS>MOLECULE
*****
 67 70 0 0 0
SMALL
GASTEIGER

@<TRIPOS>ATOM
      1 O           1.1075    0.1264   -0.5053 O.2     1  UNL1       -0.2737
      2 C           2.3235    0.2501   -0.4794 C.2     1  UNL1        0.2344
      3 C           3.0382    1.5948   -0.0821 C.3     1  UNL1        0.0861
      4 N           2.0799    2.5548    0.5191 N.pl3   1  UNL1       -0.3354
      5 C           2.5973    3.7126    1.1091 C.ar    1  UNL1        0.0277
      6 C           1.9137    4.4292    2.1007 C.ar    1  UNL1       -0.0374
      7 C           2.3583    5.6860    2.5519 C.ar    1  UNL1       -0.0182
      8 C           3.4647    6.2799    1.9553 C.ar    1  UNL1        0.1208
      9 O           3.7920    7.5416    2.3716 O.3     1  UNL1       -0.4886
     10 C           4.9143    8.1212    1.6971 C.3     1  UNL1        0.1235
     11 C           5.1991    9.4960    2.2784 C.3     1  UNL1        0.1235
     12 O           6.2433   10.1051    1.5159 O.3     1  UNL1       -0.4886
     13 C           6.7420   11.2763    2.0168 C.ar    1  UNL1        0.1207
     14 C           7.2127   12.1946    1.0747 C.ar    1  UNL1       -0.0199
     15 C           7.8641   13.3595    1.4882 C.ar    1  UNL1       -0.0583
     16 C           7.9996   13.6365    2.8469 C.ar    1  UNL1       -0.0615
     17 C           7.5137   12.7335    3.7890 C.ar    1  UNL1       -0.0583
     18 C           6.8970   11.5508    3.3755 C.ar    1  UNL1       -0.0199
     19 C           4.1443    5.5778    0.9670 C.ar    1  UNL1       -0.0182
     20 C           3.7429    4.3023    0.5908 C.ar    1  UNL1       -0.0374
     21 N           3.0910   -0.8870   -0.6669 N.am    1  UNL1       -0.2813
     22 C           4.4482   -1.0835   -0.3810 C.ar    1  UNL1        0.0756
     23 C           5.1862   -1.6984   -1.4164 C.ar    1  UNL1       -0.0369
     24 C           6.5681   -1.8537   -1.3202 C.ar    1  UNL1       -0.0598
     25 C           7.2276   -1.3507   -0.2069 C.ar    1  UNL1       -0.0582
     26 C           6.4918   -0.7961    0.8506 C.ar    1  UNL1       -0.0181
     27 C           5.0878   -0.7157    0.8181 C.ar    1  UNL1        0.1418
     28 O           4.5417   -0.2987    2.0193 O.3     1  UNL1       -0.4867
     29 C           3.1377   -0.3929    2.2726 C.3     1  UNL1        0.1236
     30 C           2.6039    0.5805    3.3241 C.3     1  UNL1        0.1235
     31 O           1.1782    0.6420    3.1307 O.3     1  UNL1       -0.4886
     32 C           0.4634    1.4451    3.9682 C.ar    1  UNL1        0.1207
     33 C          -0.8690    1.0771    4.1519 C.ar    1  UNL1       -0.0199
     34 C          -1.7221    1.8730    4.9177 C.ar    1  UNL1       -0.0583
     35 C          -1.2508    3.0567    5.4820 C.ar    1  UNL1       -0.0615
     36 C           0.0736    3.4368    5.2849 C.ar    1  UNL1       -0.0583
     37 C           0.9396    2.6077    4.5672 C.ar    1  UNL1       -0.0199
     38 H           3.5549    1.9764   -0.9630 H       1  UNL1        0.0557
     39 H           3.8171    1.4489    0.6681 H       1  UNL1        0.0557
     40 H           1.3027    2.1106    1.0120 H       1  UNL1        0.1466
     41 H           1.0044    4.0323    2.5371 H       1  UNL1        0.0637
     42 H           1.8029    6.2167    3.3233 H       1  UNL1        0.0655
     43 H           4.7131    8.2182    0.6223 H       1  UNL1        0.0731
     44 H           5.8057    7.4930    1.8359 H       1  UNL1        0.0731
     45 H           5.4639    9.3522    3.3300 H       1  UNL1        0.0731
     46 H           4.2989   10.1167    2.2227 H       1  UNL1        0.0731
     47 H           7.0768   12.0041    0.0131 H       1  UNL1        0.0654
     48 H           8.2791   14.0427    0.7519 H       1  UNL1        0.0619
     49 H           8.4903   14.5497    3.1725 H       1  UNL1        0.0618
     50 H           7.6373   12.9329    4.8500 H       1  UNL1        0.0619
     51 H           6.5811   10.8520    4.1407 H       1  UNL1        0.0654
     52 H           4.9727    5.9985    0.4126 H       1  UNL1        0.0655
     53 H           4.3131    3.8131   -0.1875 H       1  UNL1        0.0637
     54 H           2.5631   -1.7104   -0.9397 H       1  UNL1        0.1550
     55 H           4.6984   -2.0064   -2.3411 H       1  UNL1        0.0637
     56 H           7.1276   -2.3395   -2.1181 H       1  UNL1        0.0618
     57 H           8.3129   -1.4078   -0.1502 H       1  UNL1        0.0619
     58 H           7.0299   -0.4386    1.7257 H       1  UNL1        0.0655
     59 H           2.7485   -1.4156    2.2805 H       1  UNL1        0.0731
     60 H           2.6009    0.0235    1.4699 H       1  UNL1        0.0731
     61 H           3.0555    1.5648    3.1453 H       1  UNL1        0.0731
     62 H           2.8267    0.2372    4.3310 H       1  UNL1        0.0731
     63 H          -1.2384    0.1565    3.7068 H       1  UNL1        0.0654
     64 H          -2.7570    1.5758    5.0596 H       1  UNL1        0.0619
     65 H          -1.9137    3.6826    6.0729 H       1  UNL1        0.0618
     66 H           0.4309    4.3908    5.6651 H       1  UNL1        0.0619
     67 H           1.9625    2.9391    4.4238 H       1  UNL1        0.0654
@<TRIPOS>BOND
     1     1     2    2
     2     2     3    1
     3     3     4    1
     4     4     5    1
     5     5     6   ar
     6     6     7   ar
     7     7     8   ar
     8     8     9    1
     9     9    10    1
    10    10    11    1
    11    11    12    1
    12    12    13    1
    13    13    14   ar
    14    14    15   ar
    15    15    16   ar
    16    16    17   ar
    17    17    18   ar
    18    13    18   ar
    19     8    19   ar
    20    19    20   ar
    21     5    20   ar
    22     2    21   am
    23    21    22    1
    24    22    23   ar
    25    23    24   ar
    26    24    25   ar
    27    25    26   ar
    28    26    27   ar
    29    22    27   ar
    30    27    28    1
    31    28    29    1
    32    29    30    1
    33    30    31    1
    34    31    32    1
    35    32    33   ar
    36    33    34   ar
    37    34    35   ar
    38    35    36   ar
    39    36    37   ar
    40    32    37   ar
    41     3    38    1
    42     3    39    1
    43     4    40    1
    44     6    41    1
    45     7    42    1
    46    10    43    1
    47    10    44    1
    48    11    45    1
    49    11    46    1
    50    14    47    1
    51    15    48    1
    52    16    49    1
    53    17    50    1
    54    18    51    1
    55    19    52    1
    56    20    53    1
    57    21    54    1
    58    23    55    1
    59    24    56    1
    60    25    57    1
    61    26    58    1
    62    29    59    1
    63    29    60    1
    64    30    61    1
    65    30    62    1
    66    33    63    1
    67    34    64    1
    68    35    65    1
    69    36    66    1
    70    37    67    1
