REMARK  5 active torsions:
REMARK  status: ('A' for Active; 'I' for Inactive)
REMARK    1  A    between atoms: C_10  and  C_11 
REMARK       I    between atoms: C_11  and  N_13 
REMARK    2  A    between atoms: N_13  and  C_14 
REMARK    3  A    between atoms: C_14  and  C_15 
REMARK    4  A    between atoms: C_15  and  N_16 
REMARK    5  A    between atoms: C_20  and  N_21 
ROOT
ATOM      1  N   UNL d   1      -5.642  -5.723   0.130  0.00  0.00    -0.250 N 
ATOM      2  N   UNL d   1      -4.733  -6.708   0.026  0.00  0.00    -0.182 NA
ATOM      3  C   UNL d   1      -5.462  -7.809   0.037  0.00  0.00     0.158 A 
ATOM      4  C   UNL d   1      -6.846  -7.577   0.166  0.00  0.00     0.076 A 
ATOM      5  C   UNL d   1      -8.017  -8.374   0.254  0.00  0.00     0.142 A 
ATOM      6  N   UNL d   1      -9.190  -7.692   0.364  0.00  0.00    -0.224 NA
ATOM      7  C   UNL d   1      -9.156  -6.335   0.427  0.00  0.00     0.237 A 
ATOM      8  N   UNL d   1      -8.088  -5.498   0.364  0.00  0.00    -0.222 NA
ATOM      9  C   UNL d   1      -6.942  -6.192   0.227  0.00  0.00     0.163 A 
ENDROOT
BRANCH   1  10
ATOM     10  C   UNL d   1      -5.134  -4.362   0.091  0.00  0.00     0.172 C 
BRANCH  10  11
ATOM     11  C   UNL d   1      -3.582  -4.285   0.104  0.00  0.00     0.145 C 
BRANCH  11  12
ATOM     12  N   UNL d   1      -3.051  -2.929   0.064  0.00  0.00    -0.355 N 
ATOM     13  C   UNL d   1      -1.691  -2.662   0.067  0.00  0.00     0.254 C 
ATOM     14  O   UNL d   1      -0.870  -3.583   0.106  0.00  0.00    -0.268 OA
ATOM     15  H   UNL d   1      -3.708  -2.177   0.027  0.00  0.00     0.162 HD
BRANCH  13  16
ATOM     16  C   UNL d   1      -1.263  -1.244   0.028  0.00  0.00     0.066 A 
ATOM     17  C   UNL d   1       0.111  -0.780   0.010  0.00  0.00     0.008 A 
ATOM     18  C   UNL d   1       1.364  -1.433  -0.000  0.00  0.00     0.015 A 
ATOM     19  C   UNL d   1       0.110   0.615   0.002  0.00  0.00     0.043 A 
ATOM     20  C   UNL d   1       2.550  -0.689  -0.022  0.00  0.00     0.001 A 
ATOM     21  C   UNL d   1       2.511   0.701  -0.014  0.00  0.00     0.002 A 
ATOM     22  C   UNL d   1       1.288   1.382   0.003  0.00  0.00     0.030 A 
ATOM     23  N   UNL d   1      -1.207   1.004  -0.011  0.00  0.00    -0.358 N 
ATOM     24  C   UNL d   1      -2.047  -0.089   0.002  0.00  0.00     0.022 A 
ATOM     25  H   UNL d   1      -1.507   1.970  -0.033  0.00  0.00     0.166 HD
ATOM     26  C   UNL d   1      -3.519   0.094  -0.004  0.00  0.00     0.069 C 
ENDBRANCH  13  16
ENDBRANCH  11  12
ENDBRANCH  10  11
ENDBRANCH   1  10
BRANCH   5  27
ATOM     27  N   UNL d   1      -8.000  -9.766   0.395  0.00  0.00    -0.360 N 
ATOM     28  C   UNL d   1      -6.697 -10.343   0.728  0.00  0.00     0.156 C 
ATOM     29  C   UNL d   1      -6.815 -11.743   1.300  0.00  0.00     0.136 C 
ATOM     30  C   UNL d   1      -5.411 -12.244   1.613  0.00  0.00     0.041 C 
ATOM     31  O   UNL d   1      -7.481 -12.595   0.359  0.00  0.00    -0.378 OA
ATOM     32  C   UNL d   1      -8.795 -12.074   0.015  0.00  0.00     0.136 C 
ATOM     33  C   UNL d   1      -8.729 -10.621  -0.565  0.00  0.00     0.156 C 
ATOM     34  C   UNL d   1      -9.722 -12.129   1.229  0.00  0.00     0.041 C 
ENDBRANCH   5  27
TORSDOF 5
