@<TRIPOS>MOLECULE
*****
 67 70 0 0 0
SMALL
GASTEIGER

@<TRIPOS>ATOM
      1 C           1.1306    0.6822   -0.3604 C.3     1  UNL1        0.0790
      2 O           2.5294    0.4481   -0.2178 O.3     1  UNL1       -0.4914
      3 C           3.0974   -0.0547    0.9253 C.ar    1  UNL1        0.1617
      4 C           4.2887    0.5559    1.3744 C.ar    1  UNL1       -0.0131
      5 C           5.1354   -0.0009    2.4036 C.ar    1  UNL1       -0.0195
      6 C           4.8735   -1.2515    2.9400 C.ar    1  UNL1        0.1035
      7 N           5.4508   -1.7866    4.1511 N.pl3   1  UNL1       -0.2449
      8 C           4.9789   -2.8371    4.9753 C.2     1  UNL1        0.3842
      9 N           3.9184   -3.5894    4.8616 N.am    1  UNL1        0.0006
     10 C           2.8393   -3.0559    4.1979 C.2     1  UNL1        0.3406
     11 O           2.4078   -1.9585    4.4769 O.2     1  UNL1       -0.2484
     12 C           1.9420   -4.0402    3.4483 C.ar    1  UNL1        0.0579
     13 C           1.6884   -4.3943    2.1234 C.ar    1  UNL1       -0.0480
     14 C           0.3825   -4.8118    1.7648 C.ar    1  UNL1       -0.0592
     15 C          -0.6218   -4.9581    2.7379 C.ar    1  UNL1       -0.0404
     16 C          -0.3028   -4.6974    4.0639 C.ar    1  UNL1        0.0341
     17 N          -1.1952   -4.7658    5.1348 N.am    1  UNL1       -0.2857
     18 C          -1.0311   -4.4081    6.4547 C.2     1  UNL1        0.2141
     19 C           0.1969   -3.7241    7.0745 C.3     1  UNL1        0.0125
     20 O          -1.9546   -4.6970    7.2272 O.2     1  UNL1       -0.2758
     21 C           0.9867   -4.3653    4.3486 C.ar    1  UNL1       -0.0268
     22 N           5.7640   -3.1576    6.1006 N.pl3   1  UNL1       -0.2767
     23 C           5.2650   -4.1705    7.0721 C.3     1  UNL1        0.0684
     24 C           6.1647   -4.4019    8.2819 C.3     1  UNL1        0.0059
     25 C           5.7852   -5.5119    9.2391 C.2     1  UNL1        0.0106
     26 C           6.5876   -5.8218   10.2604 C.ar    1  UNL1        0.0510
     27 C           7.8341   -5.2697   10.6505 C.ar    1  UNL1       -0.0482
     28 C           8.5370   -5.8982   11.5968 C.ar    1  UNL1       -0.0608
     29 C           7.9744   -7.0197   12.3317 C.ar    1  UNL1       -0.0555
     30 C           6.7606   -7.5539   12.0739 C.ar    1  UNL1        0.0098
     31 C           5.9835   -6.9620   10.9594 C.ar    1  UNL1        0.2086
     32 N           4.8497   -7.2691   10.4519 N.2     1  UNL1       -0.2369
     33 C           4.5904   -6.4328    9.2289 C.3     1  UNL1        0.1661
     34 C           3.9200   -1.9193    2.1902 C.ar    1  UNL1        0.0222
     35 C           2.8644   -1.2880    1.4663 C.ar    1  UNL1        0.1647
     36 O           1.7050   -1.9882    1.5581 O.3     1  UNL1       -0.4913
     37 C           0.6260   -1.8109    0.6931 C.3     1  UNL1        0.0790
     38 H           0.9635    1.2936   -1.2473 H       1  UNL1        0.0660
     39 H           0.6892    1.1381    0.5291 H       1  UNL1        0.0660
     40 H           0.5451   -0.1742   -0.6887 H       1  UNL1        0.0660
     41 H           4.5696    1.5038    0.9250 H       1  UNL1        0.0656
     42 H           6.0252    0.5450    2.7002 H       1  UNL1        0.0653
     43 H           6.1427   -1.1714    4.5576 H       1  UNL1        0.2646
     44 H           2.3852   -4.1921    1.3096 H       1  UNL1        0.0626
     45 H           0.1155   -4.8851    0.7071 H       1  UNL1        0.0618
     46 H          -1.6131   -5.2826    2.4322 H       1  UNL1        0.0636
     47 H          -2.1188   -5.1312    4.9344 H       1  UNL1        0.1548
     48 H           0.9182   -3.1974    6.4577 H       1  UNL1        0.0323
     49 H           0.7432   -4.4608    7.6785 H       1  UNL1        0.0323
     50 H          -0.1367   -2.8851    7.6820 H       1  UNL1        0.0323
     51 H           1.3741   -4.3479    5.3324 H       1  UNL1        0.0644
     52 H           6.4583   -2.5041    6.4460 H       1  UNL1        0.2577
     53 H           5.1858   -5.1251    6.5430 H       1  UNL1        0.0658
     54 H           4.2699   -3.9047    7.4545 H       1  UNL1        0.0658
     55 H           6.2270   -3.4770    8.8722 H       1  UNL1        0.0343
     56 H           7.1814   -4.6102    7.9209 H       1  UNL1        0.0343
     57 H           8.2114   -4.3907   10.1415 H       1  UNL1        0.0626
     58 H           9.5447   -5.5605   11.8237 H       1  UNL1        0.0618
     59 H           8.5968   -7.3917   13.1445 H       1  UNL1        0.0620
     60 H           6.3946   -8.3922   12.6560 H       1  UNL1        0.0683
     61 H           4.2455   -7.9832   10.8609 H       1  UNL1        0.4459
     62 H           3.6380   -5.9097    9.3455 H       1  UNL1        0.1077
     63 H           4.5710   -7.1007    8.3603 H       1  UNL1        0.1077
     64 H           3.9027   -2.9951    2.2728 H       1  UNL1        0.0690
     65 H          -0.1454   -2.5834    0.7262 H       1  UNL1        0.0660
     66 H           1.0303   -1.8895   -0.3171 H       1  UNL1        0.0660
     67 H           0.0786   -0.9266    1.0203 H       1  UNL1        0.0660
@<TRIPOS>UNITY_ATOM_ATTR
32 1
charge 1
@<TRIPOS>BOND
     1     1     2    1
     2     2     3    1
     3     3     4   ar
     4     4     5   ar
     5     5     6   ar
     6     6     7    1
     7     7     8    1
     8     8     9    2
     9     9    10    1
    10    10    11    2
    11    10    12    1
    12    12    13   ar
    13    13    14   ar
    14    14    15   ar
    15    15    16   ar
    16    16    17    1
    17    17    18   am
    18    18    19    1
    19    18    20    2
    20    16    21   ar
    21    12    21   ar
    22     8    22    1
    23    22    23    1
    24    23    24    1
    25    24    25    1
    26    25    26    2
    27    26    27   ar
    28    27    28   ar
    29    28    29   ar
    30    29    30   ar
    31    30    31   ar
    32    26    31   ar
    33    31    32    2
    34    32    33    1
    35    25    33    1
    36     6    34   ar
    37    34    35   ar
    38     3    35   ar
    39    35    36    1
    40    36    37    1
    41     1    38    1
    42     1    39    1
    43     1    40    1
    44     4    41    1
    45     5    42    1
    46     7    43    1
    47    13    44    1
    48    14    45    1
    49    15    46    1
    50    17    47    1
    51    19    48    1
    52    19    49    1
    53    19    50    1
    54    21    51    1
    55    22    52    1
    56    23    53    1
    57    23    54    1
    58    24    55    1
    59    24    56    1
    60    27    57    1
    61    28    58    1
    62    29    59    1
    63    30    60    1
    64    32    61    1
    65    33    62    1
    66    33    63    1
    67    34    64    1
    68    37    65    1
    69    37    66    1
    70    37    67    1
