@<TRIPOS>MOLECULE
*****
 62 65 0 0 0
SMALL
GASTEIGER

@<TRIPOS>ATOM
      1 C           0.9681   -0.0580    0.0724 C.3     1  UNL1        0.0209
      2 C           2.4613   -0.0434    0.0741 C.ar    1  UNL1        0.1839
      3 C           3.1648    1.1695    0.0764 C.ar    1  UNL1        0.0450
      4 C           4.5567    1.2093    0.0679 C.ar    1  UNL1        0.1334
      5 N           5.1948    2.4400    0.0988 N.pl3   1  UNL1       -0.3124
      6 C           6.3731    2.9222   -0.6581 C.3     1  UNL1        0.0263
      7 C           6.1477    4.4028   -1.1078 C.3     1  UNL1        0.0152
      8 N           5.8775    5.3071    0.0276 N.3     1  UNL1       -0.2910
      9 C           7.0636    5.3798    0.9349 C.3     1  UNL1        0.0761
     10 C           6.7541    6.2962    2.1475 C.2     1  UNL1        0.2314
     11 O           5.6861    6.9003    2.2447 O.2     1  UNL1       -0.2741
     12 N           7.6776    6.3797    3.1673 N.am    1  UNL1       -0.2790
     13 C           7.4856    7.2902    4.2846 C.ar    1  UNL1        0.1135
     14 C           6.2483    7.4323    5.1095 C.ar    1  UNL1       -0.0090
     15 C           6.1753    8.4988    6.1331 C.ar    1  UNL1        0.0779
     16 C           7.3567    9.0098    6.3026 C.ar    1  UNL1        0.1489
     17 C           8.5228    8.8030    5.7858 C.ar    1  UNL1        0.0610
     18 C           8.5841    8.0529    4.6640 C.ar    1  UNL1        0.2977
     19 N           9.8324    8.1404    3.9295 N.pl3   1  UNL1        0.0817
     20 O          10.7161    8.8785    4.3849 O.2     1  UNL1        0.0415
     21 O           9.9556    7.4611    2.9018 O.co2   1  UNL1       -0.5760
     22 O           7.1998    9.8934    7.2128 O.3     1  UNL1       -0.4807
     23 C           7.9504   10.7379    7.7385 C.3     1  UNL1        0.1656
     24 C           6.3040   10.7685    8.2459 C.2     1  UNL1        0.2549
     25 O           6.9425   11.6603    8.8763 O.2     1  UNL1       -0.2717
     26 N           5.3726    9.4324    7.2921 N.am    1  UNL1       -0.2797
     27 C           4.7192    4.7496    0.7611 C.3     1  UNL1        0.0152
     28 C           4.9386    3.3115    1.2473 C.3     1  UNL1        0.0263
     29 N           5.2007    0.0306    0.0657 N.ar    1  UNL1       -0.1752
     30 C           4.4849   -1.1577    0.0817 C.ar    1  UNL1        0.2826
     31 C           5.2417   -2.4750    0.0802 C.3     1  UNL1        0.0580
     32 C           4.8958   -3.2938   -1.1550 C.3     1  UNL1       -0.0514
     33 C           6.7393   -2.2158    0.0930 C.3     1  UNL1       -0.0514
     34 N           3.1396   -1.1998    0.0804 N.ar    1  UNL1       -0.1956
     35 H           0.5783    0.9658    0.0716 H       1  UNL1        0.0336
     36 H           0.5912   -0.5633    0.9646 H       1  UNL1        0.0336
     37 H           0.5911   -0.5658   -0.8180 H       1  UNL1        0.0336
     38 H           2.5934    2.0938    0.0601 H       1  UNL1        0.0714
     39 H           6.5853    2.3313   -1.5389 H       1  UNL1        0.0477
     40 H           7.2618    2.9359   -0.0159 H       1  UNL1        0.0477
     41 H           5.2915    4.4400   -1.7952 H       1  UNL1        0.0442
     42 H           7.0188    4.7796   -1.6557 H       1  UNL1        0.0442
     43 H           7.9191    5.7499    0.3666 H       1  UNL1        0.0522
     44 H           7.3236    4.3860    1.3053 H       1  UNL1        0.0522
     45 H           8.6431    6.0582    2.9935 H       1  UNL1        0.1550
     46 H           5.5373    6.6261    4.8597 H       1  UNL1        0.0658
     47 H           9.2914    9.3142    6.3166 H       1  UNL1        0.0724
     48 H           8.2987   11.4559    6.9913 H       1  UNL1        0.0795
     49 H           8.6864   10.2113    8.3512 H       1  UNL1        0.0795
     50 H           4.4643    8.9657    7.1193 H       1  UNL1        0.1550
     51 H           3.8360    4.7858    0.1190 H       1  UNL1        0.0442
     52 H           4.4810    5.3526    1.6296 H       1  UNL1        0.0442
     53 H           4.0740    2.9862    1.8130 H       1  UNL1        0.0477
     54 H           5.8003    3.2954    1.9273 H       1  UNL1        0.0477
     55 H           4.9806   -3.0614    0.9708 H       1  UNL1        0.0420
     56 H           5.1509   -2.7370   -2.0617 H       1  UNL1        0.0238
     57 H           3.8276   -3.5221   -1.1799 H       1  UNL1        0.0238
     58 H           5.4464   -4.2408   -1.1652 H       1  UNL1        0.0238
     59 H           7.0270   -1.6387   -0.7933 H       1  UNL1        0.0238
     60 H           7.3048   -3.1500    0.0934 H       1  UNL1        0.0238
     61 H           7.0134   -1.6416    0.9823 H       1  UNL1        0.0238
     62 H           2.6435   -2.0954    0.0746 H       1  UNL1        0.4544
@<TRIPOS>UNITY_ATOM_ATTR
19 1
charge 1
21 1
charge -1
34 1
charge 1
@<TRIPOS>BOND
     1     1     2    1
     2     2     3   ar
     3     3     4   ar
     4     4     5    1
     5     5     6    1
     6     6     7    1
     7     7     8    1
     8     8     9    1
     9     9    10    1
    10    10    11    2
    11    10    12   am
    12    12    13    1
    13    13    14   ar
    14    14    15   ar
    15    15    16   ar
    16    16    17   ar
    17    17    18   ar
    18    13    18   ar
    19    18    19    1
    20    19    20    2
    21    19    21    1
    22    16    22    1
    23    22    23    1
    24    23    24    1
    25    24    25    2
    26    24    26   am
    27    15    26    1
    28     8    27    1
    29    27    28    1
    30     5    28    1
    31     4    29   ar
    32    29    30   ar
    33    30    31    1
    34    31    32    1
    35    31    33    1
    36    30    34   ar
    37     2    34   ar
    38     1    35    1
    39     1    36    1
    40     1    37    1
    41     3    38    1
    42     6    39    1
    43     6    40    1
    44     7    41    1
    45     7    42    1
    46     9    43    1
    47     9    44    1
    48    12    45    1
    49    14    46    1
    50    17    47    1
    51    23    48    1
    52    23    49    1
    53    26    50    1
    54    27    51    1
    55    27    52    1
    56    28    53    1
    57    28    54    1
    58    31    55    1
    59    32    56    1
    60    32    57    1
    61    32    58    1
    62    33    59    1
    63    33    60    1
    64    33    61    1
    65    34    62    1
