@<TRIPOS>MOLECULE
*****
 66 70 0 0 0
SMALL
GASTEIGER

@<TRIPOS>ATOM
      1 O           7.2888   -0.7228    2.6399 O.2     1  UNL1       -0.2749
      2 C           6.4252   -1.0502    1.8277 C.2     1  UNL1        0.2231
      3 C           4.9178   -1.1483    2.1441 C.3     1  UNL1        0.0734
      4 S           4.6063   -0.7249    3.9062 S.3     1  UNL1       -0.1085
      5 C           2.8017   -0.9403    4.1245 C.3     1  UNL1        0.1563
      6 N           2.3064    0.0628    5.0618 N.pl3   1  UNL1       -0.3156
      7 C           2.5126   -0.1473    6.4260 C.ar    1  UNL1        0.0414
      8 C           2.5115    0.8920    7.3613 C.ar    1  UNL1       -0.0400
      9 C           2.6242    0.6260    8.7404 C.ar    1  UNL1       -0.0600
     10 C           2.7062   -0.6818    9.2112 C.ar    1  UNL1       -0.0609
     11 C           2.7345   -1.7193    8.2976 C.ar    1  UNL1       -0.0478
     12 C           2.6699   -1.4402    6.9250 C.ar    1  UNL1        0.0593
     13 C           2.7389   -2.5562    5.9816 C.2     1  UNL1        0.2669
     14 O           3.0530   -3.6528    6.4484 O.2     1  UNL1       -0.2683
     15 N           2.4421   -2.2617    4.6491 N.am    1  UNL1       -0.1859
     16 N           2.2004   -3.3272    3.6969 N.am    1  UNL1       -0.2292
     17 C           1.6459   -4.5280    4.1386 C.2     1  UNL1        0.2296
     18 O           1.3725   -4.8446    5.2908 O.2     1  UNL1       -0.2743
     19 C           1.2858   -5.5113    3.0581 C.3     1  UNL1        0.0293
     20 C           0.9700   -6.8414    3.7649 C.3     1  UNL1       -0.0165
     21 C           0.6076   -7.9448    2.8478 C.2     1  UNL1        0.0081
     22 C           0.8576   -9.2368    3.0653 C.ar    1  UNL1        0.0509
     23 C           1.4351   -9.9597    4.1469 C.ar    1  UNL1       -0.0482
     24 C           1.5950  -11.2837    4.0080 C.ar    1  UNL1       -0.0608
     25 C           1.2000  -11.9731    2.7872 C.ar    1  UNL1       -0.0555
     26 C           0.6371  -11.3575    1.7284 C.ar    1  UNL1        0.0098
     27 C           0.4191   -9.9058    1.8319 C.ar    1  UNL1        0.2086
     28 N          -0.0821   -9.0864    0.9874 N.2     1  UNL1       -0.2369
     29 C          -0.0613   -7.7192    1.5323 C.3     1  UNL1        0.1660
     30 N           6.8472   -1.3523    0.5623 N.am    1  UNL1       -0.3122
     31 C           6.0544   -1.7118   -0.6002 C.3     1  UNL1        0.0379
     32 C           6.9100   -1.9713   -1.8487 C.3     1  UNL1        0.0742
     33 C           7.8523   -3.1564   -1.7061 C.3     1  UNL1       -0.0231
     34 C           9.0338   -2.7526   -2.5500 C.3     1  UNL1       -0.0271
     35 C           9.0645   -1.2481   -2.3979 C.3     1  UNL1        0.0482
     36 O           7.7183   -0.8210   -2.1486 O.3     1  UNL1       -0.3750
     37 H           4.5870   -2.1695    1.9359 H       1  UNL1        0.0472
     38 H           4.3894   -0.4419    1.4953 H       1  UNL1        0.0472
     39 H           2.2970   -0.7726    3.1661 H       1  UNL1        0.0847
     40 H           2.2322    1.0176    4.7377 H       1  UNL1        0.1487
     41 H           2.4456    1.9278    7.0411 H       1  UNL1        0.0636
     42 H           2.6409    1.4439    9.4566 H       1  UNL1        0.0618
     43 H           2.7569   -0.9011   10.2745 H       1  UNL1        0.0618
     44 H           2.7976   -2.7497    8.6426 H       1  UNL1        0.0626
     45 H           2.0055   -3.0300    2.7476 H       1  UNL1        0.1731
     46 H           2.1043   -5.6337    2.3417 H       1  UNL1        0.0362
     47 H           0.3955   -5.1357    2.5419 H       1  UNL1        0.0362
     48 H           0.1493   -6.7154    4.4848 H       1  UNL1        0.0317
     49 H           1.8528   -7.1423    4.3488 H       1  UNL1        0.0317
     50 H           1.7247   -9.4446    5.0590 H       1  UNL1        0.0626
     51 H           2.0317  -11.8675    4.8161 H       1  UNL1        0.0618
     52 H           1.3877  -13.0451    2.7693 H       1  UNL1        0.0620
     53 H           0.3636  -11.9044    0.8352 H       1  UNL1        0.0683
     54 H          -0.4149   -9.3581    0.0660 H       1  UNL1        0.4459
     55 H          -1.0860   -7.3518    1.6378 H       1  UNL1        0.1077
     56 H           0.5318   -7.0839    0.8698 H       1  UNL1        0.1077
     57 H           7.8382   -1.1692    0.4200 H       1  UNL1        0.1488
     58 H           5.3600   -0.8856   -0.7808 H       1  UNL1        0.0487
     59 H           5.4768   -2.6050   -0.3434 H       1  UNL1        0.0487
     60 H           6.2468   -2.1269   -2.7087 H       1  UNL1        0.0611
     61 H           7.3905   -4.0913   -2.0381 H       1  UNL1        0.0291
     62 H           8.1702   -3.2978   -0.6677 H       1  UNL1        0.0291
     63 H           8.8519   -3.0192   -3.5969 H       1  UNL1        0.0288
     64 H           9.9683   -3.2268   -2.2368 H       1  UNL1        0.0288
     65 H           9.4508   -0.7488   -3.2915 H       1  UNL1        0.0560
     66 H           9.6743   -0.9441   -1.5406 H       1  UNL1        0.0560
@<TRIPOS>UNITY_ATOM_ATTR
28 1
charge 1
@<TRIPOS>BOND
     1     1     2    2
     2     2     3    1
     3     3     4    1
     4     5     6    1
     5     6     7    1
     6     7     8   ar
     7     8     9   ar
     8     9    10   ar
     9    10    11   ar
    10    11    12   ar
    11     7    12   ar
    12    12    13    1
    13    13    14    2
    14    13    15   am
    15     5    15    1
    16    15    16    1
    17    16    17   am
    18    17    18    2
    19    17    19    1
    20    19    20    1
    21    20    21    1
    22    21    22    2
    23    22    23   ar
    24    23    24   ar
    25    24    25   ar
    26    25    26   ar
    27    26    27   ar
    28    22    27   ar
    29    27    28    2
    30    28    29    1
    31    21    29    1
    32     2    30   am
    33    30    31    1
    34    31    32    1
    35    32    33    1
    36    33    34    1
    37    34    35    1
    38    35    36    1
    39    32    36    1
    40     5     4    1
    41     3    37    1
    42     3    38    1
    43     5    39    1
    44     6    40    1
    45     8    41    1
    46     9    42    1
    47    10    43    1
    48    11    44    1
    49    16    45    1
    50    19    46    1
    51    19    47    1
    52    20    48    1
    53    20    49    1
    54    23    50    1
    55    24    51    1
    56    25    52    1
    57    26    53    1
    58    28    54    1
    59    29    55    1
    60    29    56    1
    61    30    57    1
    62    31    58    1
    63    31    59    1
    64    32    60    1
    65    33    61    1
    66    33    62    1
    67    34    63    1
    68    34    64    1
    69    35    65    1
    70    35    66    1
