@<TRIPOS>MOLECULE
*****
 53 56 0 0 0
SMALL
GASTEIGER

@<TRIPOS>ATOM
      1 O           6.1838   -0.7226   -0.7480 O.2     0  UNK0       -0.2749
      2 C           5.7678    0.3438   -1.1750 C.2     0  UNK0        0.2235
      3 C           5.9269    0.7473   -2.6359 C.3     0  UNK0        0.0725
      4 S           6.1865   -0.7663   -3.6651 S.3     0  UNK0       -0.1207
      5 C           6.7618   -0.0824   -5.2083 C.3     0  UNK0        0.1171
      6 N           8.1587   -0.4599   -5.4388 N.3     0  UNK0       -0.2318
      7 N           8.8565    0.6265   -6.0808 N.3     0  UNK0       -0.2259
      8 C           7.9109    1.6408   -6.5804 C.3     0  UNK0        0.1351
      9 N           8.3311    2.9722   -6.9505 N.pl3   0  UNK0       -0.3192
     10 C           9.3939    2.9917   -7.8635 C.ar    0  UNK0        0.0316
     11 C           9.7001    1.8521   -8.6379 C.ar    0  UNK0       -0.0406
     12 C          10.8151    1.7616   -9.4441 C.ar    0  UNK0       -0.0573
     13 C          11.5360    2.9110   -9.6770 C.ar    0  UNK0       -0.0263
     14 C          11.1421    4.1044   -9.0692 C.ar    0  UNK0        0.1251
     15 F          11.7859    5.2314   -9.3967 F       0  UNK0       -0.2054
     16 C          10.0959    4.1557   -8.1452 C.ar    0  UNK0       -0.0055
     17 S           6.5797    1.6867   -5.4278 S.3     0  UNK0       -0.0911
     18 N           4.9943    1.2210   -0.4306 N.am    1  TRP1       -0.3064
     19 CA          4.4433    0.8442    0.9111 C.3     1  TRP1        0.0666
     20 CB          2.8897    0.7675    0.8806 C.3     1  TRP1       -0.0019
     21 CG          2.3148   -0.1568   -0.1795 C.ar    1  TRP1       -0.0203
     22 CD1         3.0273   -0.9462   -1.0506 C.ar    1  TRP1        0.0060
     23 NE1         2.2191   -1.4855   -1.9881 N.ar    1  TRP1       -0.3604
     24 CE2         0.9250   -1.2319   -1.6500 C.ar    1  TRP1        0.0467
     25 CZ2        -0.2347   -1.6562   -2.2894 C.ar    1  TRP1       -0.0378
     26 CH2        -1.4401   -1.2567   -1.7240 C.ar    1  TRP1       -0.0598
     27 CZ3        -1.4706   -0.4880   -0.5585 C.ar    1  TRP1       -0.0611
     28 CE3        -0.2893   -0.0691    0.0686 C.ar    1  TRP1       -0.0523
     29 CD2         0.9438   -0.4314   -0.4992 C.ar    1  TRP1        0.0029
     30 C           4.9382    1.7829    2.0580 C.2     1  TRP1        0.0623
     31 O           4.0451    2.3616    2.7415 O.co2   1  TRP1       -0.5479
     32 OXT         6.1962    1.9016    2.1486 O.co2   1  TRP1       -0.5479
     33 H           6.7672    1.4426   -2.6824 H       0  UNK0        0.0472
     34 H           5.0063    1.2186   -3.0041 H       0  UNK0        0.0472
     35 H           6.1785   -0.5529   -6.0098 H       0  UNK0        0.0707
     36 H           8.2127   -1.3578   -5.9255 H       0  UNK0        0.1427
     37 H           9.4726    0.3011   -6.8228 H       0  UNK0        0.1435
     38 H           7.4071    1.2446   -7.4690 H       0  UNK0        0.0801
     39 H           8.3885    3.6078   -6.1584 H       0  UNK0        0.1484
     40 H           9.0816    0.9622   -8.6185 H       0  UNK0        0.0636
     41 H          11.0659    0.8047   -9.8897 H       0  UNK0        0.0619
     42 H          12.3729    2.8866  -10.3616 H       0  UNK0        0.0646
     43 H           9.8370    5.1021   -7.6802 H       0  UNK0        0.0665
     44 H           4.9451    2.1996   -0.6700 H       1  TRP1        0.1494
     45 HA          4.8159   -0.1580    1.1599 H       1  TRP1        0.0563
     46 HB1         2.5143    0.4496    1.8635 H       1  TRP1        0.0335
     47 HB2         2.4843    1.7745    0.7032 H       1  TRP1        0.0335
     48 HD1         4.0679   -1.1551   -1.1298 H       1  TRP1        0.0810
     49 HE1         2.5486   -2.0259   -2.7740 H       1  TRP1        0.1653
     50 HZ2        -0.1875   -2.2628   -3.1869 H       1  TRP1        0.0638
     51 HH2        -2.3659   -1.5531   -2.2056 H       1  TRP1        0.0618
     52 HZ3        -2.4253   -0.1987   -0.1317 H       1  TRP1        0.0618
     53 HE3        -0.3168    0.5203    0.9802 H       1  TRP1        0.0624
@<TRIPOS>UNITY_ATOM_ATTR
32 1
charge -1
@<TRIPOS>BOND
     1     1     2    2
     2     2     3    1
     3     3     4    1
     4     4     5    1
     5     5     6    1
     6     6     7    1
     7     7     8    1
     8     9    10    1
     9    10    11   ar
    10    11    12   ar
    11    12    13   ar
    12    13    14   ar
    13    14    15    1
    14    14    16   ar
    15    10    16   ar
    16     8    17    1
    17     5    17    1
    18     2    18   am
    19    20    21    1
    20    21    22   ar
    21    22    23   ar
    22    23    24   ar
    23    24    25   ar
    24    25    26   ar
    25    26    27   ar
    26    27    28   ar
    27    28    29   ar
    28    21    29   ar
    29    24    29   ar
    30    19    30    1
    31    30    31   ar
    32    30    32   ar
    33    19    20    1
    34    19    18    1
    35     8     9    1
    36     3    33    1
    37     3    34    1
    38     5    35    1
    39     6    36    1
    40     7    37    1
    41     8    38    1
    42     9    39    1
    43    11    40    1
    44    12    41    1
    45    13    42    1
    46    16    43    1
    47    18    44    1
    48    19    45    1
    49    20    46    1
    50    20    47    1
    51    22    48    1
    52    23    49    1
    53    25    50    1
    54    26    51    1
    55    27    52    1
    56    28    53    1
