@<TRIPOS>MOLECULE
*****
 29 29 0 0 0
SMALL
GASTEIGER

@<TRIPOS>ATOM
      1 C           0.9335   -0.0315   -0.0451 C.3     1  UNL1       -0.0526
      2 C           2.4634    0.0063   -0.0628 C.3     1  UNL1        0.0493
      3 C           2.9613    0.4145   -1.4514 C.3     1  UNL1        0.0200
      4 N           2.6165   -0.5703   -2.4852 N.pl3   1  UNL1       -0.3420
      5 C           2.9453   -0.3255   -3.8233 C.ar    1  UNL1        0.0457
      6 C           1.9398   -0.3962   -4.8123 C.ar    1  UNL1       -0.0394
      7 C           2.2210   -0.1312   -6.1636 C.ar    1  UNL1       -0.0599
      8 C           3.5074    0.2259   -6.5526 C.ar    1  UNL1       -0.0603
      9 C           4.5127    0.3046   -5.5975 C.ar    1  UNL1       -0.0416
     10 C           4.2418    0.0272   -4.2546 C.ar    1  UNL1        0.0617
     11 CL          5.6306    0.0014   -3.2163 Cl      1  UNL1       -0.0816
     12 C           2.9728    0.9966    0.9936 C.2     1  UNL1        0.2306
     13 O           2.2102    1.6458    1.7228 O.2     1  UNL1       -0.2742
     14 N           4.3532    1.1267    1.1040 N.am    1  UNL1       -0.2533
     15 N           4.8895    1.9534    2.1247 N.3     1  UNL1       -0.2544
     16 H           0.5321   -0.7375   -0.7774 H       1  UNL1        0.0237
     17 H           0.5218    0.9579   -0.2752 H       1  UNL1        0.0237
     18 H           0.5606   -0.3319    0.9386 H       1  UNL1        0.0237
     19 H           2.8474   -0.9898    0.1948 H       1  UNL1        0.0407
     20 H           4.0420    0.4909   -1.3762 H       1  UNL1        0.0468
     21 H           2.5913    1.4148   -1.7110 H       1  UNL1        0.0468
     22 H           1.8283   -1.1878   -2.3232 H       1  UNL1        0.1461
     23 H           0.9145   -0.6526   -4.5497 H       1  UNL1        0.0636
     24 H           1.4365   -0.1992   -6.9156 H       1  UNL1        0.0618
     25 H           3.7383    0.4326   -7.5942 H       1  UNL1        0.0618
     26 H           5.5248    0.5600   -5.8974 H       1  UNL1        0.0633
     27 H           4.9913    0.5096    0.6022 H       1  UNL1        0.1687
     28 H           4.0896    2.3953    2.6042 H       1  UNL1        0.1405
     29 H           5.3877    2.7340    1.6903 H       1  UNL1        0.1405
@<TRIPOS>BOND
     1     1     2    1
     2     2     3    1
     3     3     4    1
     4     4     5    1
     5     5     6   ar
     6     6     7   ar
     7     7     8   ar
     8     8     9   ar
     9     9    10   ar
    10     5    10   ar
    11    10    11    1
    12     2    12    1
    13    12    13    2
    14    12    14   am
    15    14    15    1
    16     1    16    1
    17     1    17    1
    18     1    18    1
    19     2    19    1
    20     3    20    1
    21     3    21    1
    22     4    22    1
    23     6    23    1
    24     7    24    1
    25     8    25    1
    26     9    26    1
    27    14    27    1
    28    15    28    1
    29    15    29    1
