REMARK  11 active torsions:
REMARK  status: ('A' for Active; 'I' for Inactive)
REMARK    1  A    between atoms: C_2  and  C_3 
REMARK       I    between atoms: C_2  and  N_13 
REMARK    2  A    between atoms: C_3  and  N_4 
REMARK    3  A    between atoms: N_13  and  N_14 
REMARK    4  A    between atoms: N_14  and  C_15 
REMARK    5  A    between atoms: C_15  and  N_17 
REMARK       I    between atoms: N_17  and  C_18 
REMARK    6  A    between atoms: C_18  and  C_20 
REMARK    7  A    between atoms: C_23  and  O_24 
REMARK    8  A    between atoms: O_24  and  C_25 
REMARK    9  A    between atoms: C_25  and  C_26 
REMARK   10  A    between atoms: C_26  and  O_27 
REMARK   11  A    between atoms: O_27  and  C_28 
ROOT
ATOM      1  N   UNL d   1       6.450   0.069  -2.703  0.00  0.00    -0.298 N 
ATOM      2  C   UNL d   1       7.261   0.149  -3.861  0.00  0.00     0.257 C 
ATOM      3  O   UNL d   1       6.836   0.251  -5.015  0.00  0.00    -0.267 OA
ATOM      4  H   UNL d   1       6.943   0.068  -1.822  0.00  0.00     0.171 HD
ENDROOT
BRANCH   1   5
ATOM      5  C   UNL d   1       5.033   0.097  -2.656  0.00  0.00     0.193 C 
ATOM      6  S   UNL d   1       4.020   0.176  -4.004  0.00  0.00    -0.039 SA
BRANCH   5   7
ATOM      7  N   UNL d   1       4.477   0.042  -1.355  0.00  0.00    -0.273 N 
ATOM      8  H   UNL d   1       5.028  -0.004  -0.507  0.00  0.00     0.189 HD
BRANCH   7   9
ATOM      9  N   UNL d   1       3.047   0.048  -1.232  0.00  0.00    -0.266 N 
ATOM     10  C   UNL d   1       2.256  -0.003  -0.102  0.00  0.00     0.254 C 
ATOM     11  O   UNL d   1       1.032  -0.016  -0.248  0.00  0.00    -0.270 OA
ATOM     12  H   UNL d   1       2.531   0.078  -2.117  0.00  0.00     0.190 HD
BRANCH  10  13
ATOM     13  C   UNL d   1       2.925  -0.049   1.252  0.00  0.00     0.233 C 
BRANCH  13  14
ATOM     14  N   UNL d   1       1.982  -0.102   2.372  0.00  0.00    -0.347 N 
ATOM     15  C   UNL d   1       1.551  -1.275   2.948  0.00  0.00     0.092 A 
ATOM     16  C   UNL d   1       0.675  -0.962   3.961  0.00  0.00     0.031 A 
ATOM     17  C   UNL d   1       0.582   0.452   4.030  0.00  0.00    -0.008 A 
ATOM     18  C   UNL d   1      -0.153   1.326   4.857  0.00  0.00     0.014 A 
ATOM     19  C   UNL d   1       1.417   0.978   3.035  0.00  0.00     0.044 A 
ATOM     20  C   UNL d   1      -0.035   2.705   4.679  0.00  0.00     0.001 A 
ATOM     21  C   UNL d   1       0.799   3.214   3.688  0.00  0.00     0.002 A 
ATOM     22  C   UNL d   1       1.538   2.366   2.849  0.00  0.00     0.030 A 
ENDBRANCH  13  14
ENDBRANCH  10  13
ENDBRANCH   7   9
ENDBRANCH   5   7
ENDBRANCH   1   5
BRANCH   2  23
ATOM     23  C   UNL d   1       8.752   0.175  -3.741  0.00  0.00     0.032 C 
ATOM     24  C   UNL d   1       9.477  -0.675  -2.908  0.00  0.00     0.020 C 
ATOM     25  C   UNL d   1      10.880  -0.540  -2.817  0.00  0.00     0.038 C 
ATOM     26  C   UNL d   1      11.587   0.362  -3.628  0.00  0.00     0.068 C 
ATOM     27  C   UNL d   1      10.875   1.082  -4.582  0.00  0.00     0.038 C 
ATOM     28  C   UNL d   1       9.472   1.021  -4.608  0.00  0.00     0.020 C 
BRANCH  26  29
ATOM     29  O   UNL d   1      12.941   0.455  -3.406  0.00  0.00    -0.349 OA
BRANCH  29  30
ATOM     30  C   UNL d   1      13.667   1.424  -4.185  0.00  0.00     0.202 C 
BRANCH  30  31
ATOM     31  C   UNL d   1      15.139   1.484  -3.749  0.00  0.00     0.202 C 
BRANCH  31  32
ATOM     32  O   UNL d   1      15.848   2.417  -4.589  0.00  0.00    -0.349 OA
BRANCH  32  33
ATOM     33  C   UNL d   1      17.181   2.554  -4.291  0.00  0.00     0.068 C 
ATOM     34  C   UNL d   1      18.028   1.480  -4.019  0.00  0.00     0.037 C 
ATOM     35  C   UNL d   1      19.347   1.709  -3.617  0.00  0.00     0.003 C 
ATOM     36  C   UNL d   1      19.862   3.003  -3.609  0.00  0.00     0.000 C 
ATOM     37  C   UNL d   1      19.062   4.065  -4.027  0.00  0.00     0.003 C 
ATOM     38  C   UNL d   1      17.713   3.846  -4.329  0.00  0.00     0.037 C 
ENDBRANCH  32  33
ENDBRANCH  31  32
ENDBRANCH  30  31
ENDBRANCH  29  30
ENDBRANCH  26  29
ENDBRANCH   2  23
TORSDOF 11
