REMARK  9 active torsions:
REMARK  status: ('A' for Active; 'I' for Inactive)
REMARK    1  A    between atoms: O_2  and  C_3 
REMARK    2  A    between atoms: C_5  and  C_6 
REMARK    3  A    between atoms: C_8  and  C_9 
REMARK       I    between atoms: C_9  and  N_11 
REMARK    4  A    between atoms: N_11  and  N_12 
REMARK    5  A    between atoms: C_13  and  C_14 
REMARK    6  A    between atoms: C_19  and  O_20 
REMARK    7  A    between atoms: C_25  and  O_26 
REMARK    8  A    between atoms: O_26  and  C_27 
REMARK    9  A    between atoms: C_27  and  C_28 
ROOT
ATOM      1  C   UNL d   1       6.447  -1.303  -2.572  0.00  0.00     0.087 A 
ATOM      2  C   UNL d   1       7.516  -0.507  -2.659  0.00  0.00     0.046 A 
ATOM      3  C   UNL d   1       8.683  -1.410  -2.752  0.00  0.00     0.249 A 
ATOM      4  N   UNL d   1       8.035  -2.756  -2.643  0.00  0.00    -0.173 NA
ATOM      5  N   UNL d   1       6.777  -2.629  -2.535  0.00  0.00    -0.154 NA
ENDROOT
BRANCH   1   6
ATOM      6  C   UNL d   1       5.086  -0.768  -2.542  0.00  0.00    -0.003 A 
ATOM      7  C   UNL d   1       4.255  -0.878  -1.411  0.00  0.00     0.053 A 
ATOM      8  C   UNL d   1       3.086  -0.092  -1.276  0.00  0.00     0.102 A 
ATOM      9  C   UNL d   1       2.756   0.786  -2.349  0.00  0.00     0.102 A 
ATOM     10  C   UNL d   1       3.539   0.801  -3.510  0.00  0.00     0.040 A 
ATOM     11  C   UNL d   1       4.685   0.031  -3.614  0.00  0.00     0.017 A 
BRANCH   8  12
ATOM     12  O   UNL d   1       2.604  -0.072   0.024  0.00  0.00    -0.353 OA
ATOM     13  C   UNL d   1       1.262  -0.458   0.352  0.00  0.00     0.210 C 
ENDBRANCH   8  12
BRANCH   9  14
ATOM     14  O   UNL d   1       1.768   1.751  -2.472  0.00  0.00    -0.344 OA
BRANCH  14  15
ATOM     15  C   UNL d   1       0.825   1.602  -1.456  0.00  0.00     0.214 C 
BRANCH  15  16
ATOM     16  C   UNL d   1      -0.415   2.427  -1.423  0.00  0.00    -0.034 A 
ATOM     17  C   UNL d   1      -0.310   3.809  -1.324  0.00  0.00     0.009 A 
ATOM     18  C   UNL d   1      -1.459   4.562  -1.149  0.00  0.00     0.001 A 
ATOM     19  C   UNL d   1      -2.709   3.938  -1.122  0.00  0.00     0.000 A 
ATOM     20  C   UNL d   1      -2.813   2.550  -1.154  0.00  0.00     0.001 A 
ATOM     21  C   UNL d   1      -1.661   1.791  -1.270  0.00  0.00     0.009 A 
ENDBRANCH  15  16
ENDBRANCH  14  15
ENDBRANCH   9  14
ENDBRANCH   1   6
BRANCH   3  22
ATOM     22  C   UNL d   1       9.488  -1.351  -4.075  0.00  0.00     0.268 C 
ATOM     23  O   UNL d   1      10.249  -2.256  -4.386  0.00  0.00    -0.269 OA
ATOM     24  N   UNL d   1       9.344  -0.166  -4.818  0.00  0.00    -0.245 N 
ATOM     25  H   UNL d   1       8.660   0.541  -4.591  0.00  0.00     0.192 HD
BRANCH  24  26
ATOM     26  N   UNL d   1      10.045  -0.049  -5.982  0.00  0.00    -0.184 NA
ATOM     27  C   UNL d   1       9.879   1.013  -6.705  0.00  0.00     0.152 C 
BRANCH  27  28
ATOM     28  C   UNL d   1      10.553   1.151  -8.020  0.00  0.00     0.016 A 
ATOM     29  C   UNL d   1      11.077   2.391  -8.407  0.00  0.00     0.016 A 
ATOM     30  C   UNL d   1      11.618   2.548  -9.690  0.00  0.00     0.001 A 
ATOM     31  C   UNL d   1      11.691   1.458 -10.559  0.00  0.00     0.003 A 
ATOM     32  C   UNL d   1      11.189   0.216 -10.167  0.00  0.00     0.037 A 
ATOM     33  C   UNL d   1      10.609   0.070  -8.908  0.00  0.00     0.077 A 
BRANCH  33  34
ATOM     34  O   UNL d   1      10.028  -1.119  -8.571  0.00  0.00    -0.360 OA
ATOM     35  H   UNL d   1      10.318  -1.820  -9.174  0.00  0.00     0.217 HD
ENDBRANCH  33  34
ENDBRANCH  27  28
ENDBRANCH  24  26
ENDBRANCH   3  22
TORSDOF 9
