@<TRIPOS>MOLECULE
*****
 38 39 0 0 0
SMALL
GASTEIGER

@<TRIPOS>ATOM
      1 N           1.0645   -0.0029   -0.0536 N.pl3   1  UNL1       -0.2433
      2 C           2.4417    0.0645    0.0761 C.2     1  UNL1        0.3575
      3 N           3.1172    1.1670    0.2480 N.2     1  UNL1        0.0501
      4 N           2.4792    2.3977    0.3248 N.am    1  UNL1       -0.0937
      5 C           3.2561    3.5546    0.4098 C.2     1  UNL1        0.3417
      6 O           4.4923    3.5301    0.3889 O.2     1  UNL1       -0.2490
      7 N           2.5241    4.7394    0.5521 N.am    1  UNL1       -0.2668
      8 C           3.1533    6.0171    0.6211 C.ar    1  UNL1        0.0354
      9 C           2.6754    7.0303    1.4628 C.ar    1  UNL1       -0.0404
     10 C           3.2812    8.3005    1.4671 C.ar    1  UNL1       -0.0595
     11 C           4.3760    8.5628    0.6429 C.ar    1  UNL1       -0.0500
     12 C           4.8497    7.5688   -0.2205 C.ar    1  UNL1        0.0566
     13 C           5.9641    7.8607   -1.1896 C.3     1  UNL1        0.4175
     14 F           5.6545    8.8981   -2.0194 F       1  UNL1       -0.1659
     15 F           7.1255    8.2114   -0.5737 F       1  UNL1       -0.1659
     16 F           6.2690    6.8170   -2.0091 F       1  UNL1       -0.1659
     17 C           4.2382    6.3050   -0.2109 C.ar    1  UNL1       -0.0288
     18 C           3.2193   -1.2592   -0.0393 C.ar    1  UNL1        0.1559
     19 C           2.8025   -2.2174   -0.9619 C.ar    1  UNL1       -0.0278
     20 C           3.4919   -3.4318   -1.0432 C.ar    1  UNL1       -0.0464
     21 C           4.5809   -3.6721   -0.2019 C.ar    1  UNL1        0.0729
     22 C           5.3605   -4.9556   -0.2403 C.3     1  UNL1        0.4188
     23 F           6.6758   -4.7703   -0.5346 F       1  UNL1       -0.1658
     24 F           5.3318   -5.6223    0.9467 F       1  UNL1       -0.1658
     25 F           4.8955   -5.8410   -1.1682 F       1  UNL1       -0.1658
     26 C           4.9231   -2.6614    0.6896 C.ar    1  UNL1        0.0402
     27 N           4.2657   -1.4723    0.7986 N.ar    1  UNL1       -0.2469
     28 H           0.5102    0.7872    0.2307 H       1  UNL1        0.2885
     29 H           0.6127   -0.8989    0.0991 H       1  UNL1        0.2885
     30 H           1.4763    2.4395    0.2815 H       1  UNL1        0.2059
     31 H           1.5490    4.6909    0.8049 H       1  UNL1        0.1565
     32 H           1.8776    6.8422    2.1763 H       1  UNL1        0.0636
     33 H           2.9033    9.0931    2.1116 H       1  UNL1        0.0618
     34 H           4.8560    9.5416    0.6648 H       1  UNL1        0.0623
     35 H           4.5997    5.5457   -0.9024 H       1  UNL1        0.0642
     36 H           1.9719   -2.0229   -1.6304 H       1  UNL1        0.0641
     37 H           3.1832   -4.1826   -1.7696 H       1  UNL1        0.0624
     38 H           5.7673   -2.7806    1.3689 H       1  UNL1        0.0835
@<TRIPOS>BOND
     1     1     2    1
     2     2     3    2
     3     3     4    1
     4     4     5   am
     5     5     6    2
     6     5     7   am
     7     7     8    1
     8     8     9   ar
     9     9    10   ar
    10    10    11   ar
    11    11    12   ar
    12    12    13    1
    13    13    14    1
    14    13    15    1
    15    13    16    1
    16    12    17   ar
    17     8    17   ar
    18     2    18    1
    19    18    19   ar
    20    19    20   ar
    21    20    21   ar
    22    21    22    1
    23    22    23    1
    24    22    24    1
    25    22    25    1
    26    21    26   ar
    27    26    27   ar
    28    18    27   ar
    29     1    28    1
    30     1    29    1
    31     4    30    1
    32     7    31    1
    33     9    32    1
    34    10    33    1
    35    11    34    1
    36    17    35    1
    37    19    36    1
    38    20    37    1
    39    26    38    1
