REMARK  2 active torsions:
REMARK  status: ('A' for Active; 'I' for Inactive)
REMARK    1  A    between atoms: C_5  and  C_6 
REMARK    2  A    between atoms: C_6  and  C_7 
ROOT
ATOM      1  C   UNL d   1      -4.348  -0.567  -0.187  0.00  0.00     0.082 A 
ATOM      2  C   UNL d   1      -4.551   0.321  -1.192  0.00  0.00     0.259 A 
ATOM      3  O   UNL d   1      -3.949   0.589  -2.254  0.00  0.00    -0.267 OA
ATOM      4  N   UNL d   1      -5.556   1.227  -1.071  0.00  0.00    -0.299 N 
ATOM      5  C   UNL d   1      -6.476   1.255  -0.077  0.00  0.00     0.181 A 
ATOM      6  S   UNL d   1      -7.725   2.357  -0.048  0.00  0.00    -0.040 SA
ATOM      7  N   UNL d   1      -6.333   0.315   0.899  0.00  0.00    -0.299 N 
ATOM      8  C   UNL d   1      -5.313  -0.599   0.946  0.00  0.00     0.259 A 
ATOM      9  O   UNL d   1      -5.225  -1.391   1.885  0.00  0.00    -0.267 OA
ATOM     10  H   UNL d   1      -5.548   1.916  -1.813  0.00  0.00     0.171 HD
ATOM     11  H   UNL d   1      -7.001   0.290   1.649  0.00  0.00     0.171 HD
ENDROOT
BRANCH   1  12
ATOM     12  C   UNL d   1      -3.130  -1.451  -0.088  0.00  0.00     0.088 C 
BRANCH  12  13
ATOM     13  C   UNL d   1      -1.808  -0.701   0.044  0.00  0.00    -0.053 A 
ATOM     14  C   UNL d   1      -1.760   0.698   0.137  0.00  0.00     0.008 A 
ATOM     15  C   UNL d   1      -0.566   1.394   0.086  0.00  0.00     0.008 A 
ATOM     16  C   UNL d   1       0.639   0.703   0.029  0.00  0.00    -0.056 A 
ATOM     17  C   UNL d   1       1.905   1.501  -0.016  0.00  0.00     0.049 C 
ATOM     18  C   UNL d   1       0.628  -0.707   0.022  0.00  0.00    -0.056 A 
ATOM     19  C   UNL d   1      -0.597  -1.398   0.013  0.00  0.00     0.014 A 
ATOM     20  C   UNL d   1       1.909  -1.486   0.021  0.00  0.00     0.049 C 
ENDBRANCH  12  13
ENDBRANCH   1  12
TORSDOF 2
