@<TRIPOS>MOLECULE
*****
 66 70 0 0 0
SMALL
GASTEIGER

@<TRIPOS>ATOM
      1 C           1.0282    0.1129    0.0181 C.3     1  UNL1       -0.0442
      2 C           2.5469    0.0262    0.0632 C.3     1  UNL1        0.0464
      3 N           3.0275    1.3117   -0.4669 N.3     1  UNL1       -0.2334
      4 N           3.7992    1.2827   -1.6283 N.am    1  UNL1       -0.2465
      5 C           4.1155    0.1736   -2.3578 C.2     1  UNL1        0.2578
      6 O           4.6410    0.3418   -3.4540 O.2     1  UNL1       -0.2691
      7 C           3.8052   -1.1189   -1.7503 C.2     1  UNL1        0.0652
      8 C           3.0493   -1.1737   -0.6561 C.2     1  UNL1       -0.0111
      9 C           2.8010   -2.5930   -0.2863 C.3     1  UNL1        0.0818
     10 C           1.3316   -3.0098   -0.3713 C.3     1  UNL1       -0.0346
     11 O           3.5918   -3.3663   -1.2330 O.3     1  UNL1       -0.3472
     12 C           4.1918   -2.4651   -2.2007 C.3     1  UNL1        0.1565
     13 N           5.6219   -2.6309   -2.0868 N.am    1  UNL1       -0.2855
     14 C           6.4263   -2.0952   -3.0736 C.2     1  UNL1        0.2251
     15 O           5.9433   -1.6569   -4.1128 O.2     1  UNL1       -0.2748
     16 C           7.9362   -2.1933   -2.8874 C.3     1  UNL1        0.0756
     17 S           8.7815   -1.0665   -4.0954 S.3     1  UNL1       -0.0827
     18 C          10.5535   -1.4610   -4.0080 C.3     1  UNL1        0.2380
     19 N          11.3246   -0.3577   -4.5806 N.pl3   1  UNL1       -0.1248
     20 N          11.4866   -0.4779   -5.9336 N.2     1  UNL1        0.0392
     21 C          11.3107   -1.7416   -6.1938 C.2     1  UNL1        0.3188
     22 C          11.4827   -2.3852   -7.5565 C.3     1  UNL1        0.0842
     23 C          11.8068   -1.3435   -8.5965 C.ar    1  UNL1        0.0014
     24 C          12.9292   -0.5377   -8.6404 C.ar    1  UNL1       -0.0510
     25 C          12.8500    0.4604   -9.6487 C.ar    1  UNL1       -0.0545
     26 C          11.7072    0.3360  -10.4054 C.ar    1  UNL1       -0.0241
     27 S          10.7360   -0.9784   -9.8839 S.2     1  UNL1       -0.1010
     28 N          10.9471   -2.4720   -4.9967 N.pl3   1  UNL1       -0.1892
     29 C          11.1897   -3.8972   -4.7623 C.3     1  UNL1        0.0938
     30 C          12.2320   -4.1691   -3.6588 C.3     1  UNL1       -0.0137
     31 C          12.3267   -5.6734   -3.3372 C.3     1  UNL1       -0.0494
     32 C          10.9707   -6.2734   -2.9685 C.3     1  UNL1       -0.0528
     33 C           9.9563   -6.0186   -4.0768 C.3     1  UNL1       -0.0494
     34 C           9.8728   -4.5366   -4.3740 C.3     1  UNL1       -0.0137
     35 H           0.6670    1.0796    0.3781 H       1  UNL1        0.0248
     36 H           0.5757   -0.6247    0.6799 H       1  UNL1        0.0248
     37 H           0.6491   -0.0425   -1.0001 H       1  UNL1        0.0248
     38 H           2.8919   -0.0393    1.1015 H       1  UNL1        0.0521
     39 H           3.5504    1.8072    0.2542 H       1  UNL1        0.1449
     40 H           3.9990    2.1467   -2.1262 H       1  UNL1        0.1693
     41 H           3.1842   -2.8178    0.7151 H       1  UNL1        0.0642
     42 H           0.8955   -2.7484   -1.3426 H       1  UNL1        0.0258
     43 H           0.7323   -2.5358    0.4091 H       1  UNL1        0.0258
     44 H           1.1998   -4.0852   -0.2289 H       1  UNL1        0.0258
     45 H           3.8209   -2.7289   -3.1971 H       1  UNL1        0.0863
     46 H           5.9368   -3.3750   -1.4813 H       1  UNL1        0.1515
     47 H           8.0903   -3.2373   -3.1152 H       1  UNL1        0.0473
     48 H           8.2510   -1.9758   -1.8633 H       1  UNL1        0.0473
     49 H          10.8932   -1.6738   -2.9947 H       1  UNL1        0.1142
     50 H          11.0649    0.5748   -4.2672 H       1  UNL1        0.1998
     51 H          10.5788   -2.9525   -7.8073 H       1  UNL1        0.0442
     52 H          12.3139   -3.0972   -7.5044 H       1  UNL1        0.0442
     53 H          13.7302   -0.6042   -7.9149 H       1  UNL1        0.0626
     54 H          13.5867    1.2407   -9.7951 H       1  UNL1        0.0623
     55 H          11.3965    0.9648  -11.2304 H       1  UNL1        0.0693
     56 H          11.5526   -4.3527   -5.6883 H       1  UNL1        0.0763
     57 H          11.9736   -3.6376   -2.7340 H       1  UNL1        0.0304
     58 H          13.2178   -3.8016   -3.9640 H       1  UNL1        0.0304
     59 H          13.0318   -5.8423   -2.5154 H       1  UNL1        0.0267
     60 H          12.7195   -6.2068   -4.2113 H       1  UNL1        0.0267
     61 H          10.6173   -5.8326   -2.0260 H       1  UNL1        0.0265
     62 H          11.0605   -7.3516   -2.7980 H       1  UNL1        0.0265
     63 H           8.9699   -6.3773   -3.7613 H       1  UNL1        0.0267
     64 H          10.2380   -6.5611   -4.9835 H       1  UNL1        0.0267
     65 H           9.5990   -4.0787   -3.4307 H       1  UNL1        0.0304
     66 H           9.1044   -4.3265   -5.1246 H       1  UNL1        0.0304
@<TRIPOS>BOND
     1     1     2    1
     2     2     3    1
     3     3     4    1
     4     4     5   am
     5     5     6    2
     6     5     7    1
     7     7     8    2
     8     2     8    1
     9     8     9    1
    10     9    10    1
    11     9    11    1
    12    11    12    1
    13     7    12    1
    14    12    13    1
    15    13    14   am
    16    14    15    2
    17    14    16    1
    18    16    17    1
    19    17    18    1
    20    18    19    1
    21    19    20    1
    22    20    21    2
    23    21    22    1
    24    22    23    1
    25    23    24   ar
    26    24    25   ar
    27    25    26   ar
    28    26    27   ar
    29    23    27   ar
    30    21    28    1
    31    18    28    1
    32    28    29    1
    33    29    30    1
    34    30    31    1
    35    31    32    1
    36    32    33    1
    37    33    34    1
    38    29    34    1
    39     1    35    1
    40     1    36    1
    41     1    37    1
    42     2    38    1
    43     3    39    1
    44     4    40    1
    45     9    41    1
    46    10    42    1
    47    10    43    1
    48    10    44    1
    49    12    45    1
    50    13    46    1
    51    16    47    1
    52    16    48    1
    53    18    49    1
    54    19    50    1
    55    22    51    1
    56    22    52    1
    57    24    53    1
    58    25    54    1
    59    26    55    1
    60    29    56    1
    61    30    57    1
    62    30    58    1
    63    31    59    1
    64    31    60    1
    65    32    61    1
    66    32    62    1
    67    33    63    1
    68    33    64    1
    69    34    65    1
    70    34    66    1
