REMARK  11 active torsions:
REMARK  status: ('A' for Active; 'I' for Inactive)
REMARK    1  A    between atoms: C_2  and  C_5 
REMARK       I    between atoms: C_5  and  N_7 
REMARK    2  A    between atoms: N_7  and  C_8 
REMARK    3  A    between atoms: C_12  and  N_13 
REMARK       I    between atoms: N_13  and  C_14 
REMARK    4  A    between atoms: C_14  and  C_16 
REMARK    5  A    between atoms: C_16  and  N_17 
REMARK    6  A    between atoms: N_17  and  C_18 
REMARK    7  A    between atoms: C_22  and  O_23 
REMARK    8  A    between atoms: O_23  and  C_24 
REMARK    9  A    between atoms: C_24  and  C_25 
REMARK   10  A    between atoms: C_25  and  C_26 
REMARK   11  A    between atoms: C_26  and  C_27 
ROOT
ATOM      1  C   UNL d   1       2.633   7.358   2.373  0.00  0.00     0.223 C 
ENDROOT
BRANCH   1   2
ATOM      2  C   UNL d   1       3.159   6.161   1.588  0.00  0.00     0.239 C 
ATOM      3  N   UNL d   1       4.207   6.398   0.697  0.00  0.00    -0.326 N 
ATOM      4  H   UNL d   1       4.590   7.333   0.628  0.00  0.00     0.169 HD
ATOM      5  O   UNL d   1       2.617   5.070   1.812  0.00  0.00    -0.271 OA
BRANCH   3   6
ATOM      6  C   UNL d   1       4.828   5.383  -0.085  0.00  0.00     0.036 A 
ATOM      7  C   UNL d   1       5.932   5.644  -0.898  0.00  0.00     0.029 A 
ATOM      8  C   UNL d   1       6.560   4.583  -1.586  0.00  0.00     0.004 A 
ATOM      9  C   UNL d   1       6.071   3.268  -1.499  0.00  0.00     0.029 A 
ATOM     10  C   UNL d   1       4.953   3.014  -0.721  0.00  0.00     0.036 A 
ATOM     11  C   UNL d   1       4.369   4.071  -0.036  0.00  0.00     0.059 A 
BRANCH  10  12
ATOM     12  N   UNL d   1       4.412   1.720  -0.533  0.00  0.00    -0.326 N 
ATOM     13  C   UNL d   1       3.040   1.503  -0.419  0.00  0.00     0.229 C 
ATOM     14  O   UNL d   1       2.196   2.385  -0.631  0.00  0.00    -0.272 OA
ATOM     15  H   UNL d   1       5.053   0.939  -0.541  0.00  0.00     0.169 HD
BRANCH  13  16
ATOM     16  C   UNL d   1       2.579   0.074  -0.087  0.00  0.00     0.030 C 
ATOM     17  C   UNL d   1       1.034   0.048  -0.073  0.00  0.00     0.025 C 
ATOM     18  C   UNL d   1       3.081  -0.375   1.289  0.00  0.00     0.025 C 
ATOM     19  C   UNL d   1       3.071  -0.890  -1.170  0.00  0.00     0.025 C 
ENDBRANCH  13  16
ENDBRANCH  10  12
ENDBRANCH   3   6
ENDBRANCH   1   2
BRANCH   1  20
ATOM     20  N   UNL d   1       1.664   6.848   3.350  0.00  0.00    -0.381 N 
ATOM     21  H   UNL d   1       1.361   5.886   3.146  0.00  0.00     0.160 HD
BRANCH  20  22
ATOM     22  C   UNL d   1       0.757   7.607   4.049  0.00  0.00     0.030 A 
ATOM     23  C   UNL d   1       0.255   7.109   5.254  0.00  0.00     0.029 A 
ATOM     24  C   UNL d   1      -0.690   7.823   5.991  0.00  0.00     0.005 A 
ATOM     25  C   UNL d   1      -1.112   9.075   5.546  0.00  0.00     0.037 A 
ATOM     26  C   UNL d   1      -0.614   9.594   4.352  0.00  0.00     0.070 A 
ATOM     27  C   UNL d   1       0.327   8.860   3.624  0.00  0.00     0.065 A 
BRANCH  26  28
ATOM     28  O   UNL d   1      -1.118  10.810   3.965  0.00  0.00    -0.351 OA
BRANCH  28  29
ATOM     29  C   UNL d   1      -0.663  11.274   2.692  0.00  0.00     0.176 C 
BRANCH  29  30
ATOM     30  C   UNL d   1      -1.347  12.587   2.365  0.00  0.00     0.031 C 
BRANCH  30  31
ATOM     31  C   UNL d   1      -0.856  13.127   1.020  0.00  0.00     0.041 C 
BRANCH  31  32
ATOM     32  C   UNL d   1      -1.523  14.440   0.713  0.00  0.00    -0.058 A 
ATOM     33  C   UNL d   1      -0.807  15.639   0.799  0.00  0.00     0.007 A 
ATOM     34  C   UNL d   1      -1.472  16.859   0.689  0.00  0.00     0.001 A 
ATOM     35  C   UNL d   1      -2.839  16.888   0.414  0.00  0.00     0.000 A 
ATOM     36  C   UNL d   1      -3.550  15.698   0.282  0.00  0.00     0.001 A 
ATOM     37  C   UNL d   1      -2.896  14.478   0.435  0.00  0.00     0.007 A 
ENDBRANCH  31  32
ENDBRANCH  30  31
ENDBRANCH  29  30
ENDBRANCH  28  29
ENDBRANCH  26  28
ENDBRANCH  20  22
ENDBRANCH   1  20
TORSDOF 11
