REMARK  14 active torsions:
REMARK  status: ('A' for Active; 'I' for Inactive)
REMARK    1  A    between atoms: C_2  and  C_3 
REMARK    2  A    between atoms: C_3  and  C_4 
REMARK    3  A    between atoms: C_4  and  C_5 
REMARK    4  A    between atoms: C_5  and  C_6 
REMARK    5  A    between atoms: C_6  and  O_7 
REMARK    6  A    between atoms: O_7  and  C_8 
REMARK    7  A    between atoms: C_11  and  C_12 
REMARK       I    between atoms: C_12  and  N_14 
REMARK    8  A    between atoms: N_14  and  C_15 
REMARK    9  A    between atoms: C_15  and  N_17 
REMARK   10  A    between atoms: C_23  and  C_24 
REMARK   11  A    between atoms: C_24  and  C_25 
REMARK   12  A    between atoms: C_25  and  O_27 
REMARK   13  A    between atoms: O_27  and  C_28 
REMARK   14  A    between atoms: C_28  and  C_30 
ROOT
ATOM      1  C   UNL d   1      14.934  -0.380  -4.760  0.00  0.00     0.177 C 
ATOM      2  S   UNL d   1      15.685   0.809  -5.702  0.00  0.00    -0.041 SA
ENDROOT
BRANCH   1   3
ATOM      3  N   UNL d   1      13.524  -0.490  -4.673  0.00  0.00    -0.299 N 
ATOM      4  C   UNL d   1      12.585   0.376  -5.295  0.00  0.00     0.257 C 
ATOM      5  O   UNL d   1      12.871   1.220  -6.144  0.00  0.00    -0.267 OA
ATOM      6  H   UNL d   1      13.190  -1.094  -3.942  0.00  0.00     0.171 HD
BRANCH   4   7
ATOM      7  C   UNL d   1      11.129   0.338  -4.945  0.00  0.00     0.032 A 
ATOM      8  C   UNL d   1      10.276   1.276  -5.577  0.00  0.00     0.020 A 
ATOM      9  C   UNL d   1       8.925   1.392  -5.228  0.00  0.00     0.038 A 
ATOM     10  C   UNL d   1       8.379   0.523  -4.292  0.00  0.00     0.068 A 
ATOM     11  C   UNL d   1       9.200  -0.440  -3.699  0.00  0.00     0.038 A 
ATOM     12  C   UNL d   1      10.568  -0.530  -4.014  0.00  0.00     0.020 A 
BRANCH  10  13
ATOM     13  O   UNL d   1       7.026   0.612  -4.103  0.00  0.00    -0.351 OA
BRANCH  13  14
ATOM     14  C   UNL d   1       6.573   0.369  -2.771  0.00  0.00     0.175 C 
BRANCH  14  15
ATOM     15  C   UNL d   1       5.047   0.360  -2.766  0.00  0.00     0.027 C 
BRANCH  15  16
ATOM     16  C   UNL d   1       4.515   0.186  -1.347  0.00  0.00     0.002 C 
BRANCH  16  17
ATOM     17  C   UNL d   1       2.992   0.182  -1.331  0.00  0.00    -0.000 C 
BRANCH  17  18
ATOM     18  C   UNL d   1       2.464   0.019   0.091  0.00  0.00    -0.005 C 
ATOM     19  C   UNL d   1       0.947   0.018   0.102  0.00  0.00     0.005 C 
ENDBRANCH  17  18
ENDBRANCH  16  17
ENDBRANCH  15  16
ENDBRANCH  14  15
ENDBRANCH  13  14
ENDBRANCH  10  13
ENDBRANCH   4   7
ENDBRANCH   1   3
BRANCH   1  20
ATOM     20  N   UNL d   1      15.648  -1.270  -3.892  0.00  0.00    -0.343 N 
ATOM     21  C   UNL d   1      16.959  -0.872  -3.292  0.00  0.00     0.146 C 
ATOM     22  C   UNL d   1      16.975  -1.291  -1.843  0.00  0.00     0.142 C 
ATOM     23  N   UNL d   1      16.759  -2.725  -1.743  0.00  0.00    -0.358 N 
ATOM     24  C   UNL d   1      15.947  -3.427  -2.607  0.00  0.00     0.241 C 
ATOM     25  H   UNL d   1      17.057  -3.221  -0.911  0.00  0.00     0.162 HD
ATOM     26  O   UNL d   1      15.685  -4.604  -2.357  0.00  0.00    -0.271 OA
ATOM     27  C   UNL d   1      15.542  -2.756  -3.969  0.00  0.00     0.188 C 
BRANCH  27  28
ATOM     28  C   UNL d   1      16.389  -3.459  -5.106  0.00  0.00     0.146 C 
BRANCH  28  29
ATOM     29  C   UNL d   1      17.390  -2.606  -5.855  0.00  0.00     0.261 C 
ATOM     30  O   UNL d   1      17.444  -1.385  -5.784  0.00  0.00    -0.265 OA
BRANCH  29  31
ATOM     31  O   UNL d   1      18.295  -3.240  -6.636  0.00  0.00    -0.316 OA
BRANCH  31  32
ATOM     32  C   UNL d   1      19.229  -2.268  -7.208  0.00  0.00     0.127 C 
ATOM     33  C   UNL d   1      20.217  -1.782  -6.130  0.00  0.00     0.040 C 
BRANCH  32  34
ATOM     34  C   UNL d   1      19.953  -2.922  -8.375  0.00  0.00     0.027 C 
ATOM     35  C   UNL d   1      20.967  -1.991  -9.024  0.00  0.00     0.007 C 
ENDBRANCH  32  34
ENDBRANCH  31  32
ENDBRANCH  29  31
ENDBRANCH  28  29
ENDBRANCH  27  28
ENDBRANCH   1  20
TORSDOF 14
