REMARK  7 active torsions:
REMARK  status: ('A' for Active; 'I' for Inactive)
REMARK    1  A    between atoms: C_2  and  C_3 
REMARK    2  A    between atoms: C_7  and  N_8 
REMARK       I    between atoms: N_8  and  C_9 
REMARK    3  A    between atoms: C_9  and  C_11 
REMARK       I    between atoms: C_11  and  N_13 
REMARK    4  A    between atoms: N_13  and  C_14 
REMARK    5  A    between atoms: C_14  and  C_15 
REMARK    6  A    between atoms: C_19  and  N_20 
REMARK       I    between atoms: N_20  and  C_21 
REMARK    7  A    between atoms: C_21  and  C_23 
ROOT
ATOM      1  C   UNL d   1       4.032   5.248  -3.707  0.00  0.00     0.309 C 
ATOM      2  O   UNL d   1       4.584   5.253  -4.797  0.00  0.00    -0.262 OA
ATOM      3  N   UNL d   1       3.630   6.353  -2.987  0.00  0.00    -0.349 N 
ATOM      4  H   UNL d   1       3.221   6.113  -2.084  0.00  0.00     0.163 HD
ENDROOT
BRANCH   3   5
ATOM      5  C   UNL d   1       3.831   7.727  -3.415  0.00  0.00     0.161 C 
BRANCH   5   6
ATOM      6  C   UNL d   1       3.425   8.809  -2.432  0.00  0.00    -0.038 A 
ATOM      7  C   UNL d   1       3.518  10.166  -2.742  0.00  0.00     0.009 A 
ATOM      8  C   UNL d   1       3.383  11.130  -1.728  0.00  0.00     0.003 A 
ATOM      9  C   UNL d   1       3.085  10.754  -0.404  0.00  0.00     0.029 A 
ATOM     10  C   UNL d   1       2.935   9.404  -0.087  0.00  0.00     0.035 A 
ATOM     11  C   UNL d   1       3.081   8.484  -1.121  0.00  0.00     0.038 A 
BRANCH  10  12
ATOM     12  N   UNL d   1       2.687   8.954   1.241  0.00  0.00    -0.321 N 
ATOM     13  C   UNL d   1       2.649   7.609   1.645  0.00  0.00     0.279 C 
ATOM     14  O   UNL d   1       2.846   6.637   0.909  0.00  0.00    -0.265 OA
ATOM     15  H   UNL d   1       2.625   9.661   1.962  0.00  0.00     0.169 HD
BRANCH  13  16
ATOM     16  C   UNL d   1       2.340   7.368   3.030  0.00  0.00     0.142 A 
ATOM     17  C   UNL d   1       1.444   7.958   3.897  0.00  0.00     0.045 A 
ATOM     18  C   UNL d   1       1.462   7.182   5.082  0.00  0.00     0.027 A 
ATOM     19  C   UNL d   1       2.380   6.180   4.878  0.00  0.00     0.143 A 
ATOM     20  O   UNL d   1       2.913   6.280   3.637  0.00  0.00    -0.317 OA
ENDBRANCH  13  16
ENDBRANCH  10  12
ENDBRANCH   5   6
ENDBRANCH   3   5
BRANCH   1  21
ATOM     21  C   UNL d   1       3.700   3.926  -2.983  0.00  0.00     0.313 C 
ATOM     22  N   UNL d   1       4.023   2.750  -3.659  0.00  0.00    -0.319 N 
ATOM     23  H   UNL d   1       4.472   2.857  -4.564  0.00  0.00     0.169 HD
ATOM     24  O   UNL d   1       3.175   4.050  -1.880  0.00  0.00    -0.262 OA
BRANCH  22  25
ATOM     25  C   UNL d   1       3.817   1.440  -3.150  0.00  0.00     0.035 A 
ATOM     26  C   UNL d   1       4.219   0.307  -3.868  0.00  0.00     0.029 A 
ATOM     27  C   UNL d   1       4.047  -0.981  -3.322  0.00  0.00     0.003 A 
ATOM     28  C   UNL d   1       3.442  -1.154  -2.075  0.00  0.00     0.007 A 
ATOM     29  C   UNL d   1       3.079  -0.035  -1.335  0.00  0.00    -0.056 A 
ATOM     30  C   UNL d   1       3.240   1.235  -1.897  0.00  0.00     0.036 A 
BRANCH  29  31
ATOM     31  C   UNL d   1       2.535  -0.120   0.064  0.00  0.00     0.034 C 
ATOM     32  C   UNL d   1       1.019  -0.085   0.072  0.00  0.00     0.010 C 
ENDBRANCH  29  31
ENDBRANCH  22  25
ENDBRANCH   1  21
TORSDOF 7
