REMARK  12 active torsions:
REMARK  status: ('A' for Active; 'I' for Inactive)
REMARK    1  A    between atoms: S_2  and  C_3 
REMARK    2  A    between atoms: C_3  and  C_4 
REMARK    3  A    between atoms: C_5  and  C_4 
REMARK    4  A    between atoms: C_5  and  C_19 
REMARK    5  A    between atoms: C_5  and  N_6 
REMARK       I    between atoms: N_6  and  C_7 
REMARK    6  A    between atoms: C_7  and  C_9 
REMARK    7  A    between atoms: C_12  and  C_13 
REMARK    8  A    between atoms: C_19  and  O_21 
REMARK    9  A    between atoms: O_21  and  C_22 
REMARK   10  A    between atoms: C_22  and  C_23 
REMARK       I    between atoms: C_23  and  N_25 
REMARK   11  A    between atoms: N_25  and  N_26 
REMARK       I    between atoms: N_26  and  C_27 
REMARK   12  A    between atoms: C_27  and  C_29 
ROOT
ATOM      1  C   UNL d   1       5.516   2.251  -2.248  0.00  0.00     0.185 C 
ENDROOT
BRANCH   1   2
ATOM      2  C   UNL d   1       7.070   2.298  -2.216  0.00  0.00     0.282 C 
ATOM      3  O   UNL d   1       7.771   1.783  -1.347  0.00  0.00    -0.263 OA
BRANCH   2   4
ATOM      4  O   UNL d   1       7.587   3.029  -3.247  0.00  0.00    -0.310 OA
BRANCH   4   5
ATOM      5  C   UNL d   1       9.028   3.103  -3.247  0.00  0.00     0.283 C 
BRANCH   5   6
ATOM      6  C   UNL d   1       9.542   4.132  -4.274  0.00  0.00     0.260 C 
ATOM      7  O   UNL d   1       8.781   4.831  -4.950  0.00  0.00    -0.269 OA
ATOM      8  N   UNL d   1      10.924   4.249  -4.393  0.00  0.00    -0.265 N 
ATOM      9  H   UNL d   1      11.606   3.712  -3.858  0.00  0.00     0.190 HD
BRANCH   8  10
ATOM     10  N   UNL d   1      11.446   5.184  -5.331  0.00  0.00    -0.263 N 
ATOM     11  C   UNL d   1      12.813   5.296  -5.543  0.00  0.00     0.270 C 
ATOM     12  O   UNL d   1      13.649   4.613  -4.943  0.00  0.00    -0.266 OA
ATOM     13  H   UNL d   1      10.755   5.686  -5.890  0.00  0.00     0.190 HD
BRANCH  11  14
ATOM     14  C   UNL d   1      13.249   6.325  -6.541  0.00  0.00     0.033 A 
ATOM     15  C   UNL d   1      14.285   6.075  -7.457  0.00  0.00     0.017 A 
ATOM     16  C   UNL d   1      14.719   7.087  -8.330  0.00  0.00     0.001 A 
ATOM     17  C   UNL d   1      14.093   8.334  -8.325  0.00  0.00     0.000 A 
ATOM     18  C   UNL d   1      13.077   8.591  -7.408  0.00  0.00     0.001 A 
ATOM     19  C   UNL d   1      12.666   7.599  -6.511  0.00  0.00     0.017 A 
ENDBRANCH  11  14
ENDBRANCH   8  10
ENDBRANCH   5   6
ENDBRANCH   4   5
ENDBRANCH   2   4
ENDBRANCH   1   2
BRANCH   1  20
ATOM     20  N   UNL d   1       5.037   1.195  -1.319  0.00  0.00    -0.343 N 
ATOM     21  C   UNL d   1       5.558  -0.081  -1.397  0.00  0.00     0.252 C 
ATOM     22  O   UNL d   1       6.311  -0.450  -2.296  0.00  0.00    -0.268 OA
ATOM     23  H   UNL d   1       4.280   1.385  -0.674  0.00  0.00     0.163 HD
BRANCH  21  24
ATOM     24  C   UNL d   1       5.223  -1.033  -0.320  0.00  0.00     0.032 A 
ATOM     25  C   UNL d   1       6.251  -1.803   0.236  0.00  0.00     0.017 A 
ATOM     26  C   UNL d   1       5.946  -2.886   1.062  0.00  0.00     0.009 A 
ATOM     27  C   UNL d   1       4.617  -3.164   1.422  0.00  0.00    -0.051 A 
ATOM     28  C   UNL d   1       3.605  -2.358   0.863  0.00  0.00     0.009 A 
ATOM     29  C   UNL d   1       3.898  -1.296   0.006  0.00  0.00     0.017 A 
BRANCH  27  30
ATOM     30  C   UNL d   1       4.308  -4.273   2.439  0.00  0.00    -0.024 C 
ATOM     31  C   UNL d   1       4.784  -5.644   1.922  0.00  0.00     0.019 C 
ATOM     32  C   UNL d   1       5.037  -3.956   3.764  0.00  0.00     0.019 C 
ATOM     33  C   UNL d   1       2.800  -4.374   2.749  0.00  0.00     0.019 C 
ENDBRANCH  27  30
ENDBRANCH  21  24
ENDBRANCH   1  20
BRANCH   1  34
ATOM     34  C   UNL d   1       4.844   3.600  -1.893  0.00  0.00     0.045 C 
BRANCH  34  35
ATOM     35  C   UNL d   1       5.720   4.852  -1.698  0.00  0.00     0.076 C 
BRANCH  35  36
ATOM     36  S   UNL d   1       4.564   6.234  -1.317  0.00  0.00    -0.173 SA
ATOM     37  C   UNL d   1       5.699   7.621  -1.059  0.00  0.00     0.089 C 
ENDBRANCH  35  36
ENDBRANCH  34  35
ENDBRANCH   1  34
TORSDOF 12
