REMARK  5 active torsions:
REMARK  status: ('A' for Active; 'I' for Inactive)
REMARK    1  A    between atoms: C_2  and  N_4 
REMARK       I    between atoms: N_4  and  C_5 
REMARK       I    between atoms: C_5  and  N_7 
REMARK    2  A    between atoms: N_7  and  N_8 
REMARK       I    between atoms: N_8  and  C_9 
REMARK    3  A    between atoms: C_9  and  C_11 
REMARK    4  A    between atoms: C_11  and  C_12 
REMARK    5  A    between atoms: C_15  and  N_16 
ROOT
ATOM      1  N   UNL d   1       6.357  -2.696  -1.953  0.00  0.00    -0.266 N 
ATOM      2  C   UNL d   1       6.717  -3.757  -2.765  0.00  0.00     0.240 C 
ATOM      3  O   UNL d   1       5.839  -4.434  -3.308  0.00  0.00    -0.272 OA
ATOM      4  H   UNL d   1       7.000  -2.047  -1.503  0.00  0.00     0.190 HD
ENDROOT
BRANCH   2   5
ATOM      5  C   UNL d   1       8.231  -4.040  -2.920  0.00  0.00     0.143 C 
BRANCH   5   6
ATOM      6  C   UNL d   1       8.543  -5.302  -3.726  0.00  0.00    -0.049 A 
ATOM      7  C   UNL d   1       7.866  -6.495  -3.423  0.00  0.00     0.010 A 
ATOM      8  C   UNL d   1       8.093  -7.668  -4.140  0.00  0.00     0.036 A 
ATOM      9  C   UNL d   1       8.992  -7.656  -5.206  0.00  0.00     0.102 A 
ATOM     10  C   UNL d   1       9.728  -6.498  -5.497  0.00  0.00     0.036 A 
ATOM     11  C   UNL d   1       9.509  -5.327  -4.749  0.00  0.00     0.010 A 
BRANCH   9  12
ATOM     12  N   UNL d   1       9.108  -8.848  -6.055  0.00  0.00    -0.116 N 
ATOM     13  O   UNL d   1       8.404  -9.829  -5.772  0.00  0.00    -0.532 OA
ATOM     14  O   UNL d   1       9.887  -8.800  -7.018  0.00  0.00    -0.532 OA
ENDBRANCH   9  12
ENDBRANCH   5   6
ENDBRANCH   2   5
BRANCH   1  15
ATOM     15  N   UNL d   1       4.962  -2.436  -1.765  0.00  0.00    -0.249 N 
ATOM     16  C   UNL d   1       4.576  -1.323  -1.051  0.00  0.00     0.335 C 
ATOM     17  N   UNL d   1       3.214  -1.179  -0.877  0.00  0.00    -0.338 N 
ATOM     18  O   UNL d   1       5.413  -0.547  -0.580  0.00  0.00    -0.246 OA
ATOM     19  H   UNL d   1       2.584  -1.815  -1.346  0.00  0.00     0.164 HD
ATOM     20  H   UNL d   1       4.323  -3.076  -2.228  0.00  0.00     0.192 HD
BRANCH  17  21
ATOM     21  C   UNL d   1       2.642  -0.064  -0.103  0.00  0.00     0.078 C 
ATOM     22  C   UNL d   1       1.107  -0.037  -0.133  0.00  0.00     0.032 C 
ATOM     23  C   UNL d   1       3.088  -0.118   1.360  0.00  0.00     0.032 C 
ENDBRANCH  17  21
ENDBRANCH   1  15
TORSDOF 5
