REMARK  5 active torsions:
REMARK  status: ('A' for Active; 'I' for Inactive)
REMARK    1  A    between atoms: N_4  and  C_5 
REMARK    2  A    between atoms: C_17  and  N_19 
REMARK    3  A    between atoms: N_19  and  C_20 
REMARK    4  A    between atoms: C_20  and  C_21 
REMARK    5  A    between atoms: C_21  and  C_22 
ROOT
ATOM      1  C   UNL d   1       1.145  -0.069   0.003  0.00  0.00     0.073 C 
ATOM      2  C   UNL d   1       2.642   0.013   0.012  0.00  0.00     0.069 C 
ATOM      3  N   UNL d   1       3.421  -1.038  -0.020  0.00  0.00    -0.171 NA
ATOM      4  N   UNL d   1       4.744  -0.559  -0.173  0.00  0.00    -0.200 N 
ATOM      5  C   UNL d   1       4.808   0.826  -0.308  0.00  0.00     0.280 C 
ATOM      6  O   UNL d   1       5.755   1.564  -0.561  0.00  0.00    -0.265 OA
ATOM      7  C   UNL d   1       3.417   1.270   0.010  0.00  0.00     0.081 C 
ATOM      8  C   UNL d   1       3.064   2.523   0.372  0.00  0.00     0.019 C 
ATOM      9  C   UNL d   1       1.672   2.889   0.878  0.00  0.00     0.069 C 
ENDROOT
BRANCH   8  10
ATOM     10  N   UNL d   1       3.959   3.596   0.364  0.00  0.00    -0.392 N 
ATOM     11  H   UNL d   1       4.944   3.362   0.191  0.00  0.00     0.159 HD
BRANCH  10  12
ATOM     12  C   UNL d   1       3.629   4.900   0.877  0.00  0.00     0.124 C 
BRANCH  12  13
ATOM     13  C   UNL d   1       4.771   5.889   0.895  0.00  0.00     0.057 C 
BRANCH  13  14
ATOM     14  C   UNL d   1       4.340   7.237   1.407  0.00  0.00    -0.044 A 
ATOM     15  C   UNL d   1       3.448   7.554   2.358  0.00  0.00    -0.005 A 
ATOM     16  C   UNL d   1       2.597   6.811   3.231  0.00  0.00     0.014 A 
ATOM     17  C   UNL d   1       3.492   9.030   2.446  0.00  0.00     0.039 A 
ATOM     18  C   UNL d   1       1.804   7.455   4.092  0.00  0.00     0.001 A 
ATOM     19  C   UNL d   1       1.814   8.899   4.189  0.00  0.00     0.002 A 
ATOM     20  C   UNL d   1       2.603   9.686   3.431  0.00  0.00     0.030 A 
ATOM     21  N   UNL d   1       4.335   9.539   1.628  0.00  0.00    -0.381 N 
ATOM     22  C   UNL d   1       4.991   8.469   0.834  0.00  0.00     0.108 A 
ATOM     23  H   UNL d   1       4.495  10.540   1.537  0.00  0.00     0.160 HD
ATOM     24  C   UNL d   1       6.489   8.442   1.069  0.00  0.00     0.037 C 
ENDBRANCH  13  14
ENDBRANCH  12  13
ENDBRANCH  10  12
ENDBRANCH   8  10
BRANCH   4  25
ATOM     25  C   UNL d   1       5.874  -1.421   0.175  0.00  0.00     0.280 C 
ATOM     26  N   UNL d   1       6.908  -1.501  -0.843  0.00  0.00    -0.357 N 
ATOM     27  C   UNL d   1       8.187  -1.572  -0.292  0.00  0.00     0.047 A 
ATOM     28  H   UNL d   1       6.700  -1.629  -1.817  0.00  0.00     0.162 HD
ATOM     29  C   UNL d   1       9.343  -1.952  -0.967  0.00  0.00     0.030 A 
ATOM     30  C   UNL d   1       8.279  -1.240   1.067  0.00  0.00     0.030 A 
ATOM     31  C   UNL d   1      10.579  -1.929  -0.298  0.00  0.00     0.002 A 
ATOM     32  C   UNL d   1      10.657  -1.532   1.042  0.00  0.00     0.002 A 
ATOM     33  C   UNL d   1       9.496  -1.195   1.738  0.00  0.00     0.021 A 
ATOM     34  S   UNL d   1       6.675  -0.911   1.745  0.00  0.00    -0.079 SA
ENDBRANCH   4  25
TORSDOF 5
