@<TRIPOS>MOLECULE
*****
 68 70 0 0 0
SMALL
GASTEIGER

@<TRIPOS>ATOM
      1 C           1.0485   -0.2226    0.3700 C.3     1  UNL1       -0.0489
      2 C           2.4974   -0.0125   -0.0081 C.3     1  UNL1        0.0173
      3 N           2.8764    0.2551   -1.4377 N.am    1  UNL1       -0.2677
      4 C           2.0325    0.3945   -2.5876 C.2     1  UNL1        0.2508
      5 O           2.4400    0.4465   -3.7506 O.2     1  UNL1       -0.2696
      6 C           0.5562    0.5017   -2.4772 C.ar    1  UNL1        0.0373
      7 C          -0.3726   -0.3085   -3.1533 C.ar    1  UNL1       -0.0479
      8 C          -1.7851   -0.1950   -2.9007 C.ar    1  UNL1       -0.0398
      9 C          -2.2622    0.6215   -1.8604 C.ar    1  UNL1        0.0326
     10 N          -3.6594    0.6316   -1.3880 N.am    1  UNL1       -0.2966
     11 C          -4.1527    1.2458   -0.1865 C.2     1  UNL1        0.1408
     12 S          -3.1772    1.9352    1.0146 S.2     1  UNL1       -0.0182
     13 N          -5.5661    1.2319   -0.0008 N.am    1  UNL1       -0.2676
     14 C          -6.2058    1.8675    1.0923 C.2     1  UNL1        0.2190
     15 O          -5.6300    2.5630    1.9324 O.2     1  UNL1       -0.2754
     16 C          -7.6996    1.7575    1.2918 C.3     1  UNL1        0.0344
     17 C          -8.0769    2.5653    2.5828 C.3     1  UNL1        0.0532
     18 C          -9.5471    2.5303    2.8651 C.2     1  UNL1        0.3075
     19 O         -10.3570    1.9238    2.1478 O.2     1  UNL1       -0.2508
     20 O          -9.8888    3.2309    3.9837 O.3     1  UNL1       -0.4646
     21 C         -11.3025    3.2079    4.2669 C.3     1  UNL1        0.0928
     22 C         -11.6270    4.0098    5.5236 C.3     1  UNL1       -0.0146
     23 C         -13.1352    3.9997    5.8320 C.3     1  UNL1       -0.0246
     24 C         -13.3970    4.7811    7.0965 C.ar    1  UNL1       -0.0472
     25 C         -13.5365    6.1744    7.0569 C.ar    1  UNL1       -0.0586
     26 C         -13.4945    6.9147    8.2387 C.ar    1  UNL1       -0.0615
     27 C         -13.4071    6.2644    9.4688 C.ar    1  UNL1       -0.0617
     28 C         -13.3448    4.8735    9.5191 C.ar    1  UNL1       -0.0615
     29 C         -13.3362    4.1340    8.3376 C.ar    1  UNL1       -0.0586
     30 C          -1.2836    1.4556   -1.3182 C.ar    1  UNL1       -0.0398
     31 C           0.0568    1.5016   -1.6922 C.ar    1  UNL1       -0.0479
     32 C           4.3171    0.2840   -1.6664 C.ar    1  UNL1        0.0366
     33 C           4.8893    1.1898   -2.5717 C.ar    1  UNL1       -0.0403
     34 C           6.2448    1.1116   -2.9190 C.ar    1  UNL1       -0.0600
     35 C           7.0721    0.1732   -2.3106 C.ar    1  UNL1       -0.0616
     36 C           6.5403   -0.6934   -1.3634 C.ar    1  UNL1       -0.0600
     37 C           5.1792   -0.6314   -1.0376 C.ar    1  UNL1       -0.0403
     38 H           0.9092   -0.5878    1.3892 H       1  UNL1        0.0245
     39 H           0.5591   -0.9265   -0.3072 H       1  UNL1        0.0245
     40 H           0.5568    0.7439    0.3999 H       1  UNL1        0.0245
     41 H           3.0123   -0.9107    0.3398 H       1  UNL1        0.0466
     42 H           2.8843    0.8324    0.5795 H       1  UNL1        0.0466
     43 H           0.0016   -1.0411   -3.8682 H       1  UNL1        0.0626
     44 H          -2.4553   -0.7790   -3.5278 H       1  UNL1        0.0636
     45 H          -4.2890    0.0669   -1.9505 H       1  UNL1        0.1538
     46 H          -6.1464    0.7154   -0.6484 H       1  UNL1        0.1565
     47 H          -7.9805    0.7085    1.4179 H       1  UNL1        0.0364
     48 H          -8.2135    2.1848    0.4266 H       1  UNL1        0.0364
     49 H          -7.7714    3.6169    2.4736 H       1  UNL1        0.0382
     50 H          -7.5454    2.1548    3.4544 H       1  UNL1        0.0382
     51 H         -11.6174    2.1682    4.4128 H       1  UNL1        0.0697
     52 H         -11.8417    3.6401    3.4164 H       1  UNL1        0.0697
     53 H         -11.2702    5.0414    5.4057 H       1  UNL1        0.0301
     54 H         -11.0631    3.6027    6.3737 H       1  UNL1        0.0301
     55 H         -13.4925    2.9694    5.9562 H       1  UNL1        0.0314
     56 H         -13.7075    4.4279    4.9998 H       1  UNL1        0.0314
     57 H         -13.6320    6.6938    6.1060 H       1  UNL1        0.0620
     58 H         -13.4954    8.0008    8.1985 H       1  UNL1        0.0618
     59 H         -13.3808    6.8426   10.3882 H       1  UNL1        0.0618
     60 H         -13.2614    4.3651   10.4757 H       1  UNL1        0.0618
     61 H         -13.2413    3.0519    8.3867 H       1  UNL1        0.0620
     62 H          -1.4413    2.1136   -0.4911 H       1  UNL1        0.0636
     63 H           0.7061    2.2087   -1.1820 H       1  UNL1        0.0626
     64 H           4.2856    1.9716   -3.0262 H       1  UNL1        0.0636
     65 H           6.6444    1.7688   -3.6871 H       1  UNL1        0.0618
     66 H           8.1233    0.1122   -2.5794 H       1  UNL1        0.0618
     67 H           7.1722   -1.4501   -0.9047 H       1  UNL1        0.0618
     68 H           4.8145   -1.3773   -0.3412 H       1  UNL1        0.0636
@<TRIPOS>BOND
     1     1     2    1
     2     2     3    1
     3     3     4   am
     4     4     5    2
     5     4     6    1
     6     6     7   ar
     7     7     8   ar
     8     8     9   ar
     9     9    10    1
    10    10    11    1
    11    11    12    2
    12    11    13    1
    13    13    14   am
    14    14    15    2
    15    14    16    1
    16    16    17    1
    17    17    18    1
    18    18    19    2
    19    18    20    1
    20    20    21    1
    21    21    22    1
    22    22    23    1
    23    23    24    1
    24    24    25   ar
    25    25    26   ar
    26    26    27   ar
    27    27    28   ar
    28    28    29   ar
    29    24    29   ar
    30     9    30   ar
    31    30    31   ar
    32     6    31   ar
    33     3    32    1
    34    32    33   ar
    35    33    34   ar
    36    34    35   ar
    37    35    36   ar
    38    36    37   ar
    39    32    37   ar
    40     1    38    1
    41     1    39    1
    42     1    40    1
    43     2    41    1
    44     2    42    1
    45     7    43    1
    46     8    44    1
    47    10    45    1
    48    13    46    1
    49    16    47    1
    50    16    48    1
    51    17    49    1
    52    17    50    1
    53    21    51    1
    54    21    52    1
    55    22    53    1
    56    22    54    1
    57    23    55    1
    58    23    56    1
    59    25    57    1
    60    26    58    1
    61    27    59    1
    62    28    60    1
    63    29    61    1
    64    30    62    1
    65    31    63    1
    66    33    64    1
    67    34    65    1
    68    35    66    1
    69    36    67    1
    70    37    68    1
