@<TRIPOS>MOLECULE
*****
 30 31 0 0 0
SMALL
GASTEIGER

@<TRIPOS>ATOM
      1 O           1.0656   -0.0097    0.0170 O.2     1  UNL1       -0.2686
      2 C           2.2955   -0.0470    0.0655 C.2     1  UNL1        0.2616
      3 N           3.0203    0.3401    1.1780 N.am    1  UNL1       -0.2303
      4 N           2.3581    0.6879    2.3785 N.am    1  UNL1       -0.2339
      5 C           3.1366    1.0320    3.4796 C.2     1  UNL1        0.2322
      6 O           4.3719    1.0079    3.3951 O.2     1  UNL1       -0.2740
      7 C           2.3614    1.4438    4.7809 C.3     1  UNL1        0.0370
      8 C           2.8884    0.8378    6.1218 C.3     1  UNL1       -0.0419
      9 C           2.6292    2.1991    6.7928 C.3     1  UNL1       -0.0517
     10 C           2.7363    2.8313    5.3931 C.3     1  UNL1       -0.0419
     11 C           3.0688   -0.4914   -1.1349 C.ar    1  UNL1        0.0565
     12 C           2.6732   -0.0072   -2.3981 C.ar    1  UNL1       -0.0468
     13 C           3.3364   -0.4177   -3.5646 C.ar    1  UNL1       -0.0426
     14 C           4.3857   -1.3284   -3.4790 C.ar    1  UNL1        0.0424
     15 CL          5.1969   -1.8431   -4.9072 Cl      1  UNL1       -0.0835
     16 C           4.7772   -1.8308   -2.2406 C.ar    1  UNL1       -0.0243
     17 C           4.1223   -1.4153   -1.0708 C.ar    1  UNL1        0.0545
     18 CL          4.6447   -2.1373    0.4087 Cl      1  UNL1       -0.0827
     19 H           4.0375    0.2776    1.2399 H       1  UNL1        0.1731
     20 H           1.3404    0.6725    2.3697 H       1  UNL1        0.1728
     21 H           1.2717    1.3244    4.6858 H       1  UNL1        0.0395
     22 H           3.9520    0.5720    6.1027 H       1  UNL1        0.0272
     23 H           2.3276   -0.0056    6.5334 H       1  UNL1        0.0272
     24 H           3.3905    2.5200    7.5110 H       1  UNL1        0.0266
     25 H           1.6440    2.2957    7.2634 H       1  UNL1        0.0266
     26 H           3.7542    3.1609    5.1533 H       1  UNL1        0.0272
     27 H           2.0479    3.6570    5.1941 H       1  UNL1        0.0272
     28 H           1.8434    0.6933   -2.4847 H       1  UNL1        0.0626
     29 H           3.0276   -0.0320   -4.5349 H       1  UNL1        0.0632
     30 H           5.5858   -2.5567   -2.1861 H       1  UNL1        0.0647
@<TRIPOS>BOND
     1     1     2    2
     2     2     3   am
     3     3     4    1
     4     4     5   am
     5     5     6    2
     6     5     7    1
     7     7     8    1
     8     8     9    1
     9     9    10    1
    10     7    10    1
    11     2    11    1
    12    11    12   ar
    13    12    13   ar
    14    13    14   ar
    15    14    15    1
    16    14    16   ar
    17    16    17   ar
    18    11    17   ar
    19    17    18    1
    20     3    19    1
    21     4    20    1
    22     7    21    1
    23     8    22    1
    24     8    23    1
    25     9    24    1
    26     9    25    1
    27    10    26    1
    28    10    27    1
    29    12    28    1
    30    13    29    1
    31    16    30    1
