@<TRIPOS>MOLECULE
*****
 53 56 0 0 0
SMALL
GASTEIGER

@<TRIPOS>ATOM
      1 C           1.0395    0.0763    0.0495 C.3     1  UNL1        0.0125
      2 C           2.5621    0.0582    0.0675 C.2     1  UNL1        0.2143
      3 O           3.1346   -0.3797    1.0684 O.2     1  UNL1       -0.2758
      4 N           3.2476    0.5771   -1.0346 N.am    1  UNL1       -0.2773
      5 C           4.6590    0.6523   -1.0707 C.ar    1  UNL1        0.1570
      6 C           5.3392    1.7427   -1.4863 C.ar    1  UNL1        0.1757
      7 O           4.8654    2.8401   -1.8772 O.co2   1  UNL1       -0.8238
      8 N           6.7565    1.7463   -1.4607 N.ar    1  UNL1       -0.1931
      9 C           7.4735    0.6493   -1.0678 C.ar    1  UNL1        0.3278
     10 S           9.2813    0.7856   -1.1200 S.3     1  UNL1       -0.0271
     11 C          10.1597   -0.9214   -0.6168 C.3     1  UNL1        0.0821
     12 C          11.9548   -0.9106   -0.5232 C.2     1  UNL1        0.2277
     13 O          12.2126    0.2452   -0.8723 O.2     1  UNL1       -0.2746
     14 N          13.1586   -2.1206   -0.0510 N.am    1  UNL1       -0.2843
     15 C          15.1177   -2.4606    0.1206 C.ar    1  UNL1        0.0412
     16 C          14.4027   -3.4426    0.4429 C.ar    1  UNL1       -0.0399
     17 C          15.5501   -3.2384    0.3310 C.ar    1  UNL1       -0.0594
     18 C          16.3405   -4.3882    0.7592 C.ar    1  UNL1       -0.0539
     19 C          17.5747   -4.1677    0.7177 C.ar    1  UNL1       -0.0161
     20 C          18.6159   -5.3906    1.1795 C.ar    1  UNL1       -0.0540
     21 C          19.9597   -5.3281    1.4596 C.ar    1  UNL1       -0.0612
     22 C          20.3733   -4.1277    1.0276 C.ar    1  UNL1       -0.0611
     23 C          19.1243   -3.0620    0.4021 C.ar    1  UNL1       -0.0523
     24 C          17.2427   -2.8967    0.3193 C.ar    1  UNL1        0.0033
     25 N           6.8422   -0.4810   -0.7025 N.ar    1  UNL1       -0.2159
     26 C           7.4650   -1.6286   -0.2471 C.ar    1  UNL1        0.0560
     27 C           7.4581   -2.8642   -0.9119 C.ar    1  UNL1       -0.0375
     28 C           8.0394   -4.0097   -0.3446 C.ar    1  UNL1       -0.0598
     29 C           8.9008   -3.8976    0.7182 C.ar    1  UNL1       -0.0616
     30 C           9.1075   -2.6608    1.2562 C.ar    1  UNL1       -0.0598
     31 C           8.2031   -1.6064    0.9373 C.ar    1  UNL1       -0.0375
     32 C           5.4114   -0.5460   -0.6510 C.ar    1  UNL1        0.2874
     33 O           4.8661   -1.5989   -0.3478 O.2     1  UNL1       -0.2649
     34 H           0.6504   -0.3702    0.9822 H       1  UNL1        0.0323
     35 H           0.6470   -0.5140   -0.7782 H       1  UNL1        0.0323
     36 H           0.6490    1.0935   -0.0059 H       1  UNL1        0.0323
     37 H           2.7695    1.0356   -1.8069 H       1  UNL1        0.1551
     38 H           7.2350    2.6108   -1.7555 H       1  UNL1        0.4545
     39 H           9.6408   -1.6632   -1.2210 H       1  UNL1        0.0477
     40 H           9.9302   -0.8783    0.4169 H       1  UNL1        0.0477
     41 H          12.2188   -2.8111    0.1897 H       1  UNL1        0.1548
     42 H          13.7053   -4.1392    0.6718 H       1  UNL1        0.0636
     43 H          16.3270   -1.8177   -0.1628 H       1  UNL1        0.0618
     44 H          15.9738   -5.3113    1.1045 H       1  UNL1        0.0624
     45 H          18.1501   -6.3774    1.2976 H       1  UNL1        0.0624
     46 H          20.5337   -6.1094    1.9532 H       1  UNL1        0.0618
     47 H          21.5367   -4.0434    1.2135 H       1  UNL1        0.0618
     48 H          20.1326   -2.4315   -0.0570 H       1  UNL1        0.0624
     49 H           6.9840   -2.9735   -1.8725 H       1  UNL1        0.0638
     50 H           7.8293   -5.0052   -0.7116 H       1  UNL1        0.0618
     51 H           9.3527   -4.7727    1.1522 H       1  UNL1        0.0618
     52 H          10.0089   -2.4858    1.8511 H       1  UNL1        0.0618
     53 H           8.4143   -0.6092    1.3518 H       1  UNL1        0.0638
@<TRIPOS>UNITY_ATOM_ATTR
7 1
charge -1
8 1
charge 1
@<TRIPOS>BOND
     1     1     2    1
     2     2     3    2
     3     2     4   am
     4     4     5    1
     5     5     6   ar
     6     6     7    1
     7     6     8   ar
     8     8     9   ar
     9     9    10    1
    10    10    11    1
    11    11    12    1
    12    12    13    2
    13    12    14   am
    14    14    15    1
    15    15    16   ar
    16    16    17   ar
    17    17    18   ar
    18    18    19   ar
    19    19    20   ar
    20    20    21   ar
    21    21    22   ar
    22    22    23   ar
    23    23    24   ar
    24    15    24   ar
    25    19    24   ar
    26     9    25   ar
    27    25    26    1
    28    26    27   ar
    29    27    28   ar
    30    28    29   ar
    31    29    30   ar
    32    30    31   ar
    33    26    31   ar
    34    25    32   ar
    35     5    32   ar
    36    32    33    2
    37     1    34    1
    38     1    35    1
    39     1    36    1
    40     4    37    1
    41     8    38    1
    42    11    39    1
    43    11    40    1
    44    14    41    1
    45    16    42    1
    46    17    43    1
    47    18    44    1
    48    20    45    1
    49    21    46    1
    50    22    47    1
    51    23    48    1
    52    27    49    1
    53    28    50    1
    54    29    51    1
    55    30    52    1
    56    31    53    1
