REMARK  6 active torsions:
REMARK  status: ('A' for Active; 'I' for Inactive)
REMARK       I    between atoms: C_2  and  N_3 
REMARK       I    between atoms: C_2  and  N_12 
REMARK    1  A    between atoms: N_3  and  C_4 
REMARK    2  A    between atoms: C_4  and  C_5 
REMARK    3  A    between atoms: N_12  and  C_13 
REMARK    4  A    between atoms: C_15  and  N_16 
REMARK       I    between atoms: N_16  and  C_17 
REMARK    5  A    between atoms: C_17  and  C_19 
REMARK    6  A    between atoms: C_28  and  N_29 
ROOT
ATOM      1  C   UNL d   1       4.517  -0.500   1.079  0.00  0.00     0.065 C 
ATOM      2  C   UNL d   1       5.251  -1.577   1.644  0.00  0.00     0.061 C 
ATOM      3  C   UNL d   1       6.643  -1.468   1.827  0.00  0.00     0.037 C 
ATOM      4  C   UNL d   1       7.277  -0.335   1.325  0.00  0.00     0.032 C 
ATOM      5  C   UNL d   1       6.562   0.740   0.829  0.00  0.00     0.034 C 
ATOM      6  C   UNL d   1       5.177   0.705   0.746  0.00  0.00     0.057 C 
ENDROOT
BRANCH   1   7
ATOM      7  N   UNL d   1       3.111  -0.648   0.893  0.00  0.00    -0.307 N 
ATOM      8  C   UNL d   1       2.298  -0.108  -0.086  0.00  0.00     0.321 C 
ATOM      9  O   UNL d   1       1.081  -0.007   0.102  0.00  0.00    -0.247 OA
ATOM     10  N   UNL d   1       2.900   0.233  -1.270  0.00  0.00    -0.339 N 
ATOM     11  H   UNL d   1       3.889   0.381  -1.153  0.00  0.00     0.164 HD
ATOM     12  H   UNL d   1       2.601  -1.033   1.680  0.00  0.00     0.170 HD
BRANCH  10  13
ATOM     13  C   UNL d   1       2.236   1.026  -2.311  0.00  0.00     0.162 C 
BRANCH  13  14
ATOM     14  C   UNL d   1       3.188   1.612  -3.367  0.00  0.00    -0.040 A 
ATOM     15  C   UNL d   1       3.242   3.006  -3.637  0.00  0.00     0.012 A 
ATOM     16  C   UNL d   1       4.159   3.538  -4.555  0.00  0.00     0.043 A 
ATOM     17  C   UNL d   1       5.009   2.680  -5.237  0.00  0.00     0.116 A 
ATOM     18  F   UNL d   1       5.866   3.175  -6.140  0.00  0.00    -0.206 F 
ATOM     19  C   UNL d   1       4.984   1.313  -4.987  0.00  0.00     0.043 A 
ATOM     20  C   UNL d   1       4.088   0.782  -4.050  0.00  0.00     0.012 A 
ENDBRANCH  13  14
ENDBRANCH  10  13
ENDBRANCH   1   7
BRANCH   6  21
ATOM     21  N   UNL d   1       4.540   1.874   0.401  0.00  0.00    -0.379 N 
ATOM     22  C   UNL d   1       4.788   2.523  -0.870  0.00  0.00     0.123 C 
ATOM     23  C   UNL d   1       5.116   3.981  -0.720  0.00  0.00     0.020 C 
ATOM     24  C   UNL d   1       4.037   4.651   0.138  0.00  0.00     0.003 C 
ATOM     25  C   UNL d   1       3.793   3.888   1.447  0.00  0.00     0.020 C 
ATOM     26  C   UNL d   1       3.451   2.424   1.192  0.00  0.00     0.123 C 
ENDBRANCH   6  21
BRANCH   3  27
ATOM     27  N   UNL d   1       7.389  -2.456   2.534  0.00  0.00    -0.323 N 
ATOM     28  C   UNL d   1       8.732  -2.327   2.881  0.00  0.00     0.257 C 
ATOM     29  O   UNL d   1       9.464  -1.364   2.621  0.00  0.00    -0.267 OA
ATOM     30  H   UNL d   1       6.888  -3.275   2.863  0.00  0.00     0.169 HD
BRANCH  28  31
ATOM     31  C   UNL d   1       9.416  -3.394   3.640  0.00  0.00     0.054 A 
ATOM     32  C   UNL d   1      10.450  -2.967   4.506  0.00  0.00     0.019 A 
ATOM     33  C   UNL d   1      11.361  -3.875   5.038  0.00  0.00     0.001 A 
ATOM     34  C   UNL d   1      11.206  -5.230   4.772  0.00  0.00     0.002 A 
ATOM     35  C   UNL d   1      10.160  -5.667   3.954  0.00  0.00     0.025 A 
ATOM     36  C   UNL d   1       9.264  -4.756   3.381  0.00  0.00     0.049 A 
ATOM     37 CL   UNL d   1       8.046  -5.395   2.339  0.00  0.00    -0.083 Cl
ENDBRANCH  28  31
ENDBRANCH   3  27
TORSDOF 6
