REMARK  10 active torsions:
REMARK  status: ('A' for Active; 'I' for Inactive)
REMARK    1  A    between atoms: C_2  and  C_4 
REMARK    2  A    between atoms: C_7  and  C_8 
REMARK       I    between atoms: C_8  and  N_10 
REMARK    3  A    between atoms: N_10  and  C_11 
REMARK    4  A    between atoms: C_11  and  N_13 
REMARK    5  A    between atoms: N_13  and  N_14 
REMARK       I    between atoms: N_14  and  C_15 
REMARK    6  A    between atoms: C_15  and  C_17 
REMARK    7  A    between atoms: C_17  and  C_18 
REMARK    8  A    between atoms: C_18  and  C_19 
REMARK    9  A    between atoms: C_19  and  O_20 
REMARK   10  A    between atoms: O_20  and  C_21 
ROOT
ATOM      1  N   UNL d   1       7.716  -7.283   0.524  0.00  0.00    -0.273 N 
ATOM      2  H   UNL d   1       8.351  -6.511   0.723  0.00  0.00     0.189 HD
ENDROOT
BRANCH   1   3
ATOM      3  C   UNL d   1       6.337  -7.186   0.276  0.00  0.00     0.193 C 
ATOM      4  S   UNL d   1       5.455  -8.592  -0.038  0.00  0.00    -0.039 SA
BRANCH   3   5
ATOM      5  N   UNL d   1       5.804  -5.878   0.319  0.00  0.00    -0.298 N 
ATOM      6  C   UNL d   1       4.453  -5.521   0.109  0.00  0.00     0.257 C 
ATOM      7  O   UNL d   1       3.559  -6.341  -0.126  0.00  0.00    -0.267 OA
ATOM      8  H   UNL d   1       6.456  -5.127   0.488  0.00  0.00     0.171 HD
BRANCH   6   9
ATOM      9  C   UNL d   1       4.000  -4.092   0.118  0.00  0.00     0.032 A 
ATOM     10  C   UNL d   1       2.644  -3.843  -0.189  0.00  0.00     0.017 A 
ATOM     11  C   UNL d   1       2.147  -2.546  -0.337  0.00  0.00     0.008 A 
ATOM     12  C   UNL d   1       2.960  -1.443  -0.069  0.00  0.00    -0.055 A 
ATOM     13  C   UNL d   1       4.312  -1.694   0.232  0.00  0.00     0.008 A 
ATOM     14  C   UNL d   1       4.827  -2.997   0.343  0.00  0.00     0.017 A 
BRANCH  12  15
ATOM     15  C   UNL d   1       2.418  -0.016  -0.045  0.00  0.00     0.010 C 
ATOM     16  C   UNL d   1       0.882   0.055  -0.056  0.00  0.00     0.015 C 
ATOM     17  C   UNL d   1       2.908   0.727   1.210  0.00  0.00     0.015 C 
ENDBRANCH  12  15
ENDBRANCH   6   9
ENDBRANCH   3   5
ENDBRANCH   1   3
BRANCH   1  18
ATOM     18  N   UNL d   1       8.342  -8.591   0.516  0.00  0.00    -0.268 N 
ATOM     19  C   UNL d   1       9.694  -8.739   0.771  0.00  0.00     0.236 C 
ATOM     20  O   UNL d   1      10.416  -7.771   1.001  0.00  0.00    -0.272 OA
ATOM     21  H   UNL d   1       7.718  -9.374   0.319  0.00  0.00     0.190 HD
BRANCH  19  22
ATOM     22  C   UNL d   1      10.216 -10.185   0.746  0.00  0.00     0.106 C 
BRANCH  22  23
ATOM     23  C   UNL d   1      11.723 -10.253   1.068  0.00  0.00     0.036 C 
BRANCH  23  24
ATOM     24  C   UNL d   1      12.259 -11.687   1.049  0.00  0.00     0.176 C 
BRANCH  24  25
ATOM     25  O   UNL d   1      13.665 -11.702   1.325  0.00  0.00    -0.349 OA
BRANCH  25  26
ATOM     26  C   UNL d   1      14.322 -12.906   1.212  0.00  0.00     0.090 A 
ATOM     27  C   UNL d   1      15.321 -13.112   2.186  0.00  0.00     0.040 A 
ATOM     28  C   UNL d   1      16.171 -14.227   2.131  0.00  0.00     0.026 A 
ATOM     29  C   UNL d   1      15.988 -15.180   1.139  0.00  0.00     0.035 A 
ATOM     30 CL   UNL d   1      16.944 -16.609   1.111  0.00  0.00    -0.084 Cl
ATOM     31  C   UNL d   1      15.011 -14.997   0.171  0.00  0.00     0.050 A 
ATOM     32  C   UNL d   1      14.191 -13.863   0.189  0.00  0.00     0.069 A 
ATOM     33 CL   UNL d   1      13.118 -13.769  -1.163  0.00  0.00    -0.081 Cl
ENDBRANCH  25  26
ENDBRANCH  24  25
ENDBRANCH  23  24
ENDBRANCH  22  23
ENDBRANCH  19  22
ENDBRANCH   1  18
TORSDOF 10
