REMARK  4 active torsions:
REMARK  status: ('A' for Active; 'I' for Inactive)
REMARK    1  A    between atoms: N_1  and  C_2 
REMARK    2  A    between atoms: C_7  and  N_8 
REMARK       I    between atoms: N_8  and  C_9 
REMARK    3  A    between atoms: C_9  and  C_11 
REMARK    4  A    between atoms: C_13  and  C_14 
ROOT
ATOM      1  C   UNL d   1      -1.439  -0.894  -0.034  0.00  0.00     0.036 C 
ATOM      2  C   UNL d   1      -2.442   0.093  -0.050  0.00  0.00     0.030 C 
ATOM      3  C   UNL d   1      -2.103   1.409  -0.016  0.00  0.00     0.003 C 
ATOM      4  C   UNL d   1      -0.771   1.702   0.093  0.00  0.00     0.014 C 
ATOM      5  C   UNL d   1       0.295   0.832  -0.015  0.00  0.00     0.003 A 
ATOM      6  C   UNL d   1       1.620   1.332  -0.036  0.00  0.00     0.045 A 
ATOM      7  C   UNL d   1       2.658   0.370  -0.012  0.00  0.00     0.030 A 
ATOM      8  C   UNL d   1       2.369  -1.010  -0.011  0.00  0.00     0.003 A 
ATOM      9  C   UNL d   1       1.042  -1.458  -0.030  0.00  0.00     0.014 A 
ATOM     10  C   UNL d   1      -0.039  -0.543  -0.038  0.00  0.00     0.003 A 
ENDROOT
BRANCH   6  11
ATOM     11  N   UNL d   1       1.978   2.744  -0.058  0.00  0.00    -0.326 N 
ATOM     12  C   UNL d   1       1.210   3.941  -0.153  0.00  0.00     0.227 C 
ATOM     13  O   UNL d   1       0.067   4.171  -0.442  0.00  0.00    -0.273 OA
ATOM     14  H   UNL d   1       2.976   2.901  -0.027  0.00  0.00     0.169 HD
BRANCH  12  15
ATOM     15  C   UNL d   1       2.019   5.157   0.078  0.00  0.00     0.087 A 
ATOM     16  C   UNL d   1       1.609   6.592   0.334  0.00  0.00     0.025 A 
ATOM     17  C   UNL d   1       1.799   6.167  -1.069  0.00  0.00     0.032 A 
BRANCH  17  18
ATOM     18  C   UNL d   1       2.894   6.549  -2.003  0.00  0.00    -0.053 A 
ATOM     19  C   UNL d   1       4.243   6.287  -1.760  0.00  0.00     0.007 A 
ATOM     20  C   UNL d   1       5.224   6.724  -2.649  0.00  0.00     0.001 A 
ATOM     21  C   UNL d   1       4.867   7.333  -3.851  0.00  0.00     0.000 A 
ATOM     22  C   UNL d   1       3.528   7.545  -4.150  0.00  0.00     0.001 A 
ATOM     23  C   UNL d   1       2.557   7.162  -3.230  0.00  0.00     0.007 A 
ENDBRANCH  17  18
ENDBRANCH  12  15
ENDBRANCH   6  11
BRANCH   1  24
ATOM     24  N   UNL d   1      -1.893  -2.205   0.013  0.00  0.00    -0.398 N 
ATOM     25  H   UNL d   1      -2.892  -2.365   0.017  0.00  0.00     0.156 HD
ATOM     26  H   UNL d   1      -1.261  -2.986  -0.003  0.00  0.00     0.156 HD
ENDBRANCH   1  24
TORSDOF 4
