REMARK  5 active torsions:
REMARK  status: ('A' for Active; 'I' for Inactive)
REMARK    1  A    between atoms: C_2  and  C_3 
REMARK       I    between atoms: C_2  and  N_13 
REMARK    2  A    between atoms: C_3  and  C_4 
REMARK    3  A    between atoms: C_7  and  N_8 
REMARK    4  A    between atoms: N_13  and  N_14 
REMARK       I    between atoms: N_14  and  C_15 
REMARK    5  A    between atoms: C_15  and  C_17 
ROOT
ATOM      1  O   UNL d   1       1.126  -0.062  -0.108  0.00  0.00    -0.272 OA
ATOM      2  C   UNL d   1       2.352  -0.005  -0.013  0.00  0.00     0.240 C 
ATOM      3  N   UNL d   1       3.136  -0.571  -0.997  0.00  0.00    -0.267 N 
ATOM      4  H   UNL d   1       2.654  -1.022  -1.778  0.00  0.00     0.190 HD
ENDROOT
BRANCH   3   5
ATOM      5  N   UNL d   1       4.542  -0.612  -1.017  0.00  0.00    -0.263 N 
ATOM      6  C   UNL d   1       5.170  -1.165  -2.123  0.00  0.00     0.270 C 
ATOM      7  O   UNL d   1       4.560  -1.631  -3.087  0.00  0.00    -0.266 OA
ATOM      8  H   UNL d   1       5.066  -0.147  -0.286  0.00  0.00     0.190 HD
BRANCH   6   9
ATOM      9  C   UNL d   1       6.662  -1.192  -2.107  0.00  0.00     0.033 A 
ATOM     10  C   UNL d   1       7.379  -0.978  -3.296  0.00  0.00     0.019 A 
ATOM     11  C   UNL d   1       8.771  -1.142  -3.324  0.00  0.00     0.025 A 
ATOM     12  C   UNL d   1       9.455  -1.462  -2.152  0.00  0.00     0.034 A 
ATOM     13 CL   UNL d   1      11.172  -1.571  -2.160  0.00  0.00    -0.084 Cl
ATOM     14  C   UNL d   1       8.753  -1.672  -0.966  0.00  0.00     0.025 A 
ATOM     15  C   UNL d   1       7.358  -1.544  -0.942  0.00  0.00     0.019 A 
ENDBRANCH   6   9
ENDBRANCH   3   5
BRANCH   2  16
ATOM     16  C   UNL d   1       3.061   0.661   1.155  0.00  0.00     0.143 C 
BRANCH  16  17
ATOM     17  C   UNL d   1       2.150   1.235   2.224  0.00  0.00    -0.049 A 
ATOM     18  C   UNL d   1       2.088   2.619   2.449  0.00  0.00     0.010 A 
ATOM     19  C   UNL d   1       1.343   3.132   3.515  0.00  0.00     0.036 A 
ATOM     20  C   UNL d   1       0.577   2.265   4.304  0.00  0.00     0.102 A 
ATOM     21  C   UNL d   1       0.605   0.885   4.075  0.00  0.00     0.036 A 
ATOM     22  C   UNL d   1       1.395   0.377   3.041  0.00  0.00     0.010 A 
BRANCH  20  23
ATOM     23  N   UNL d   1      -0.307   2.815   5.340  0.00  0.00    -0.116 N 
ATOM     24  O   UNL d   1      -0.312   4.045   5.501  0.00  0.00    -0.532 OA
ATOM     25  O   UNL d   1      -1.006   2.021   5.985  0.00  0.00    -0.532 OA
ENDBRANCH  20  23
ENDBRANCH  16  17
ENDBRANCH   2  16
TORSDOF 5
