@<TRIPOS>MOLECULE
*****
 60 63 0 0 0
SMALL
GASTEIGER

@<TRIPOS>ATOM
      1 C           1.0555   -0.1885   -0.0058 C.3     1  UNL1       -0.0613
      2 C           2.5887   -0.1239   -0.0513 C.3     1  UNL1       -0.0305
      3 C           3.0670    1.0694   -0.8412 C.ar    1  UNL1       -0.0475
      4 C           4.0803    1.0436   -1.8128 C.ar    1  UNL1       -0.0568
      5 C           4.4646    2.2243   -2.5085 C.ar    1  UNL1       -0.0402
      6 C           3.7362    3.4064   -2.3476 C.ar    1  UNL1        0.0348
      7 N           4.0030    4.6071   -3.1068 N.am    1  UNL1       -0.2692
      8 C           3.1668    5.7350   -3.0717 C.2     1  UNL1        0.3082
      9 O           2.0420    5.7297   -2.5679 O.2     1  UNL1       -0.2522
     10 N           3.6930    6.9022   -3.6123 N.am    1  UNL1       -0.2675
     11 C           3.0334    8.1647   -3.3495 C.ar    1  UNL1        0.0576
     12 C           2.6382    9.0073   -4.4424 C.ar    1  UNL1       -0.0174
     13 C           2.0657   10.2849   -4.2190 C.ar    1  UNL1        0.0355
     14 N           1.8375   11.2267   -5.2814 N.am    1  UNL1       -0.2814
     15 C           1.5077   12.5716   -5.0788 C.2     1  UNL1        0.2483
     16 O           1.2749   13.1267   -3.9975 O.2     1  UNL1       -0.2699
     17 C           1.4418   13.4914   -6.2367 C.ar    1  UNL1        0.0372
     18 C           1.9031   14.8126   -6.0521 C.ar    1  UNL1       -0.0469
     19 C           1.6824   15.7846   -7.0271 C.ar    1  UNL1       -0.0257
     20 C           1.0554   15.4191   -8.2097 C.ar    1  UNL1        0.1234
     21 F           0.8981   16.3301   -9.1786 F       1  UNL1       -0.2055
     22 C           0.5916   14.1183   -8.4055 C.ar    1  UNL1       -0.0257
     23 C           0.7709   13.1487   -7.4115 C.ar    1  UNL1       -0.0469
     24 C           1.7849   10.6344   -2.9034 C.ar    1  UNL1       -0.0386
     25 C           2.1571    9.8251   -1.8374 C.ar    1  UNL1       -0.0371
     26 C           2.7989    8.5950   -2.0123 C.ar    1  UNL1        0.0514
     27 N           3.1772    7.9679   -0.8368 N.pl3   1  UNL1       -0.3285
     28 C           4.4834    7.3940   -0.5795 C.3     1  UNL1        0.0123
     29 C           4.1835    6.0219   -0.0148 C.3     1  UNL1       -0.0358
     30 C           2.8454    6.1767    0.6906 C.3     1  UNL1       -0.0358
     31 C           2.1341    7.3261   -0.0299 C.3     1  UNL1        0.0123
     32 C           2.7477    3.3874   -1.3616 C.ar    1  UNL1       -0.0402
     33 C           2.4664    2.2859   -0.5772 C.ar    1  UNL1       -0.0568
     34 H           0.7122   -1.0548    0.5633 H       1  UNL1        0.0233
     35 H           0.6415   -0.2372   -1.0189 H       1  UNL1        0.0233
     36 H           0.6128    0.6900    0.4791 H       1  UNL1        0.0233
     37 H           2.9745   -1.0548   -0.4781 H       1  UNL1        0.0311
     38 H           2.9765   -0.0421    0.9722 H       1  UNL1        0.0311
     39 H           4.5691    0.1015   -2.0557 H       1  UNL1        0.0621
     40 H           5.3161    2.1749   -3.1810 H       1  UNL1        0.0636
     41 H           4.8033    4.6005   -3.7213 H       1  UNL1        0.1564
     42 H           4.2221    6.8216   -4.4656 H       1  UNL1        0.1564
     43 H           2.7293    8.6361   -5.4606 H       1  UNL1        0.0655
     44 H           2.0994   10.9393   -6.2167 H       1  UNL1        0.1551
     45 H           2.4072   15.0917   -5.1265 H       1  UNL1        0.0626
     46 H           1.9749   16.8178   -6.8629 H       1  UNL1        0.0646
     47 H           0.0632   13.8795   -9.3232 H       1  UNL1        0.0646
     48 H           0.3387   12.1616   -7.5374 H       1  UNL1        0.0626
     49 H           1.2892   11.5574   -2.6330 H       1  UNL1        0.0637
     50 H           2.0002   10.2121   -0.8331 H       1  UNL1        0.0637
     51 H           4.9726    7.9853    0.1991 H       1  UNL1        0.0464
     52 H           5.1456    7.3631   -1.4493 H       1  UNL1        0.0464
     53 H           4.9725    5.6043    0.6124 H       1  UNL1        0.0281
     54 H           4.1098    5.3398   -0.8380 H       1  UNL1        0.0281
     55 H           3.0213    6.4271    1.7387 H       1  UNL1        0.0281
     56 H           2.2361    5.2677    0.6945 H       1  UNL1        0.0281
     57 H           1.7413    8.0283    0.7133 H       1  UNL1        0.0464
     58 H           1.2815    6.9711   -0.6219 H       1  UNL1        0.0464
     59 H           2.1609    4.2562   -1.1119 H       1  UNL1        0.0636
     60 H           1.7240    2.4073    0.2060 H       1  UNL1        0.0621
@<TRIPOS>BOND
     1     1     2    1
     2     2     3    1
     3     3     4   ar
     4     4     5   ar
     5     5     6   ar
     6     6     7    1
     7     7     8   am
     8     8     9    2
     9     8    10   am
    10    10    11    1
    11    11    12   ar
    12    12    13   ar
    13    13    14    1
    14    14    15   am
    15    15    16    2
    16    15    17    1
    17    17    18   ar
    18    18    19   ar
    19    19    20   ar
    20    20    21    1
    21    20    22   ar
    22    22    23   ar
    23    17    23   ar
    24    13    24   ar
    25    24    25   ar
    26    25    26   ar
    27    11    26   ar
    28    26    27    1
    29    27    28    1
    30    28    29    1
    31    29    30    1
    32    30    31    1
    33    27    31    1
    34     6    32   ar
    35    32    33   ar
    36     3    33   ar
    37     1    34    1
    38     1    35    1
    39     1    36    1
    40     2    37    1
    41     2    38    1
    42     4    39    1
    43     5    40    1
    44     7    41    1
    45    10    42    1
    46    12    43    1
    47    14    44    1
    48    18    45    1
    49    19    46    1
    50    22    47    1
    51    23    48    1
    52    24    49    1
    53    25    50    1
    54    28    51    1
    55    28    52    1
    56    29    53    1
    57    29    54    1
    58    30    55    1
    59    30    56    1
    60    31    57    1
    61    31    58    1
    62    32    59    1
    63    33    60    1
