@<TRIPOS>MOLECULE
*****
 37 39 0 0 0
SMALL
GASTEIGER

@<TRIPOS>ATOM
      1 O           1.0452    0.0312    0.0886 O.2     1  UNL1       -0.2734
      2 C           2.2766   -0.0109   -0.0087 C.2     1  UNL1        0.2400
      3 C           3.0330   -0.9142   -0.9824 C.3     1  UNL1        0.0530
      4 C           2.1295   -1.7615   -1.8464 C.ar    1  UNL1       -0.0136
      5 C           2.2029   -3.1355   -1.9958 C.ar    1  UNL1        0.0064
      6 N           1.1957   -3.5399   -2.8309 N.ar    1  UNL1       -0.3603
      7 C           0.4883   -2.4527   -3.2851 C.ar    1  UNL1        0.0481
      8 C          -0.5973   -2.3887   -4.1710 C.ar    1  UNL1       -0.0194
      9 C          -1.1114   -1.1240   -4.4691 C.ar    1  UNL1        0.0430
     10 CL         -2.4187   -0.9874   -5.5845 Cl      1  UNL1       -0.0835
     11 C          -0.5821    0.0261   -3.8940 C.ar    1  UNL1       -0.0427
     12 C           0.4945   -0.0611   -3.0025 C.ar    1  UNL1       -0.0509
     13 C           1.0523   -1.3209   -2.6925 C.ar    1  UNL1        0.0034
     14 N           2.9904    0.8150    0.8006 N.am    1  UNL1       -0.1940
     15 O           4.3904    0.7880    0.8293 O.3     1  UNL1       -0.2752
     16 C           4.8844    1.7261    1.8044 C.3     1  UNL1        0.0983
     17 C           6.3947    1.7489    1.7885 C.ar    1  UNL1       -0.0197
     18 C           7.1059    2.6025    2.6468 C.ar    1  UNL1       -0.0563
     19 C           8.4937    2.7246    2.5268 C.ar    1  UNL1       -0.0614
     20 C           9.1902    1.9400    1.6084 C.ar    1  UNL1       -0.0617
     21 C           8.5001    1.0575    0.7849 C.ar    1  UNL1       -0.0614
     22 C           7.1140    0.9696    0.8709 C.ar    1  UNL1       -0.0563
     23 H           3.6898   -1.5716   -0.3980 H       1  UNL1        0.0408
     24 H           3.6690   -0.3013   -1.6329 H       1  UNL1        0.0408
     25 H           2.8796   -3.8625   -1.5668 H       1  UNL1        0.0810
     26 H           1.0047   -4.4969   -3.0943 H       1  UNL1        0.1653
     27 H          -1.0172   -3.2840   -4.6169 H       1  UNL1        0.0653
     28 H          -0.9989    1.0014   -4.1298 H       1  UNL1        0.0632
     29 H           0.8869    0.8419   -2.5445 H       1  UNL1        0.0625
     30 H           2.4836    1.4067    1.4470 H       1  UNL1        0.1825
     31 H           4.5210    1.4441    2.7998 H       1  UNL1        0.0634
     32 H           4.5195    2.7295    1.5481 H       1  UNL1        0.0634
     33 H           6.5897    3.1925    3.4018 H       1  UNL1        0.0621
     34 H           9.0345    3.4431    3.1380 H       1  UNL1        0.0618
     35 H          10.2711    2.0147    1.5321 H       1  UNL1        0.0618
     36 H           9.0299    0.4501    0.0570 H       1  UNL1        0.0618
     37 H           6.5955    0.2903    0.1984 H       1  UNL1        0.0621
@<TRIPOS>BOND
     1     1     2    2
     2     2     3    1
     3     3     4    1
     4     4     5   ar
     5     5     6   ar
     6     6     7   ar
     7     7     8   ar
     8     8     9   ar
     9     9    10    1
    10     9    11   ar
    11    11    12   ar
    12    12    13   ar
    13     4    13   ar
    14     7    13   ar
    15     2    14   am
    16    14    15    1
    17    15    16    1
    18    16    17    1
    19    17    18   ar
    20    18    19   ar
    21    19    20   ar
    22    20    21   ar
    23    21    22   ar
    24    17    22   ar
    25     3    23    1
    26     3    24    1
    27     5    25    1
    28     6    26    1
    29     8    27    1
    30    11    28    1
    31    12    29    1
    32    14    30    1
    33    16    31    1
    34    16    32    1
    35    18    33    1
    36    19    34    1
    37    20    35    1
    38    21    36    1
    39    22    37    1
