@<TRIPOS>MOLECULE
*****
 61 63 0 0 0
SMALL
GASTEIGER

@<TRIPOS>ATOM
      1 C          -3.3358   -3.1661    4.9682 C.3     1  UNL1       -0.0653
      2 C          -3.0134   -2.7191    6.3819 C.3     1  UNL1       -0.0558
      3 C          -2.0036   -3.6720    7.0019 C.3     1  UNL1       -0.0502
      4 C          -1.6398   -3.2360    8.4081 C.3     1  UNL1       -0.0186
      5 C          -0.6066   -4.1923    8.9945 C.3     1  UNL1        0.0896
      6 O          -0.1648   -3.5847   10.2014 O.3     1  UNL1       -0.4912
      7 C           1.0189   -4.0274   10.7151 C.ar    1  UNL1        0.1326
      8 C           0.9412   -4.4016   12.0843 C.ar    1  UNL1       -0.0192
      9 C           2.0790   -4.7268   12.8274 C.ar    1  UNL1       -0.0583
     10 C           3.3033   -4.7711   12.1855 C.ar    1  UNL1       -0.0608
     11 C           3.3829   -4.4164   10.8277 C.ar    1  UNL1       -0.0461
     12 C           2.2573   -3.9896   10.0616 C.ar    1  UNL1        0.0786
     13 C           2.5572   -3.5902    8.6160 C.2     1  UNL1        0.2531
     14 O           3.6602   -3.9490    8.2025 O.2     1  UNL1       -0.2697
     15 N           1.6597   -2.8196    7.8071 N.am    1  UNL1       -0.2626
     16 C           1.6056   -2.7751    6.3793 C.2     1  UNL1        0.1533
     17 S           2.7965   -3.3866    5.3572 S.2     1  UNL1       -0.0170
     18 N           0.4549   -2.1665    5.8123 N.am    1  UNL1       -0.2455
     19 N           0.1761   -2.3626    4.3738 N.am    1  UNL1       -0.2349
     20 C          -0.8327   -1.6513    3.7126 C.2     1  UNL1        0.2341
     21 O          -1.6656   -0.9547    4.2845 O.2     1  UNL1       -0.2739
     22 C          -0.8112   -1.8012    2.1948 C.3     1  UNL1        0.0609
     23 C          -1.2281   -3.1579    1.6426 C.3     1  UNL1        0.0367
     24 C          -1.3964   -2.8409    0.1797 C.2     1  UNL1        0.2167
     25 O          -1.2321   -3.6680   -0.6812 O.2     1  UNL1       -0.2756
     26 N          -1.7848   -1.4977    0.0887 N.am    1  UNL1       -0.2934
     27 C          -2.1691   -0.7690   -1.1387 C.3     1  UNL1        0.0726
     28 C          -2.3152   -1.6756   -2.3120 C.ar    1  UNL1        0.1220
     29 C          -3.1215   -2.7802   -2.5039 C.ar    1  UNL1       -0.0191
     30 C          -2.6915   -3.3964   -3.6963 C.ar    1  UNL1       -0.0236
     31 C          -1.7092   -2.5833   -4.2113 C.ar    1  UNL1        0.0921
     32 O          -1.4750   -1.5252   -3.3817 O.2     1  UNL1       -0.4662
     33 C          -1.7242   -0.8591    1.3980 C.3     1  UNL1        0.0267
     34 H          -3.9935   -2.4447    4.4754 H       1  UNL1        0.0230
     35 H          -3.8014   -4.1514    4.9653 H       1  UNL1        0.0230
     36 H          -2.4344   -3.2862    4.3703 H       1  UNL1        0.0230
     37 H          -3.9282   -2.7339    6.9788 H       1  UNL1        0.0263
     38 H          -2.6539   -1.6803    6.4027 H       1  UNL1        0.0263
     39 H          -1.1120   -3.7685    6.3803 H       1  UNL1        0.0266
     40 H          -2.4059   -4.6853    7.0199 H       1  UNL1        0.0266
     41 H          -2.5323   -3.2083    9.0414 H       1  UNL1        0.0298
     42 H          -1.2589   -2.2007    8.4163 H       1  UNL1        0.0298
     43 H           0.1824   -4.3369    8.2656 H       1  UNL1        0.0696
     44 H          -0.9832   -5.2032    9.1590 H       1  UNL1        0.0696
     45 H          -0.0233   -4.4324   12.5915 H       1  UNL1        0.0654
     46 H           2.0139   -4.9310   13.8960 H       1  UNL1        0.0619
     47 H           4.1970   -5.0676   12.7348 H       1  UNL1        0.0618
     48 H           4.3726   -4.4544   10.3710 H       1  UNL1        0.0626
     49 H           0.8874   -2.4120    8.3141 H       1  UNL1        0.1569
     50 H          -0.3664   -1.8743    6.3369 H       1  UNL1        0.1718
     51 H           0.9980   -2.6596    3.8461 H       1  UNL1        0.1728
     52 H           0.2209   -1.5912    1.8898 H       1  UNL1        0.0415
     53 H          -2.1945   -3.5245    2.0100 H       1  UNL1        0.0366
     54 H          -0.4685   -3.9326    1.7581 H       1  UNL1        0.0366
     55 H          -1.4454    0.0348   -1.3155 H       1  UNL1        0.0545
     56 H          -3.1443   -0.3018   -0.9491 H       1  UNL1        0.0545
     57 H          -3.8147   -3.1639   -1.7703 H       1  UNL1        0.0652
     58 H          -3.0273   -4.3415   -4.0972 H       1  UNL1        0.0649
     59 H          -1.0884   -2.6455   -5.0946 H       1  UNL1        0.1029
     60 H          -2.7423   -0.7719    1.7979 H       1  UNL1        0.0472
     61 H          -1.2804    0.1371    1.3166 H       1  UNL1        0.0472
@<TRIPOS>BOND
     1     1     2    1
     2     2     3    1
     3     3     4    1
     4     4     5    1
     5     5     6    1
     6     6     7    1
     7     7     8   ar
     8     8     9   ar
     9     9    10   ar
    10    10    11   ar
    11    11    12   ar
    12     7    12   ar
    13    12    13    1
    14    13    14    2
    15    13    15   am
    16    15    16    1
    17    16    17    2
    18    16    18    1
    19    18    19    1
    20    19    20   am
    21    20    21    2
    22    22    23    1
    23    23    24    1
    24    24    25    2
    25    24    26   am
    26    26    27    1
    27    27    28    1
    28    28    29   ar
    29    29    30   ar
    30    30    31   ar
    31    31    32   ar
    32    28    32   ar
    33    26    33    1
    34    22    33    1
    35    22    20    1
    36     1    34    1
    37     1    35    1
    38     1    36    1
    39     2    37    1
    40     2    38    1
    41     3    39    1
    42     3    40    1
    43     4    41    1
    44     4    42    1
    45     5    43    1
    46     5    44    1
    47     8    45    1
    48     9    46    1
    49    10    47    1
    50    11    48    1
    51    15    49    1
    52    18    50    1
    53    19    51    1
    54    22    52    1
    55    23    53    1
    56    23    54    1
    57    27    55    1
    58    27    56    1
    59    29    57    1
    60    30    58    1
    61    31    59    1
    62    33    60    1
    63    33    61    1
