REMARK  7 active torsions:
REMARK  status: ('A' for Active; 'I' for Inactive)
REMARK    1  A    between atoms: O_2  and  C_3 
REMARK    2  A    between atoms: C_6  and  O_7 
REMARK    3  A    between atoms: O_7  and  C_8 
REMARK    4  A    between atoms: C_8  and  C_9 
REMARK       I    between atoms: C_9  and  N_11 
REMARK    5  A    between atoms: N_11  and  N_12 
REMARK       I    between atoms: N_12  and  C_13 
REMARK       I    between atoms: C_13  and  N_15 
REMARK    6  A    between atoms: N_15  and  C_16 
REMARK    7  A    between atoms: C_16  and  C_17 
ROOT
ATOM      1  C   UNL d   1       5.972   7.111   0.582  0.00  0.00     0.260 C 
ATOM      2  O   UNL d   1       6.938   7.064  -0.184  0.00  0.00    -0.269 OA
ATOM      3  N   UNL d   1       5.669   8.283   1.274  0.00  0.00    -0.264 N 
ATOM      4  H   UNL d   1       4.882   8.403   1.910  0.00  0.00     0.190 HD
ENDROOT
BRANCH   3   5
ATOM      5  N   UNL d   1       6.481   9.452   1.079  0.00  0.00    -0.249 N 
ATOM      6  C   UNL d   1       6.122  10.630   1.707  0.00  0.00     0.334 C 
ATOM      7  O   UNL d   1       5.129  10.692   2.438  0.00  0.00    -0.246 OA
ATOM      8  N   UNL d   1       6.955  11.701   1.470  0.00  0.00    -0.341 N 
ATOM      9  H   UNL d   1       7.792  11.561   0.921  0.00  0.00     0.164 HD
ATOM     10  H   UNL d   1       7.272   9.354   0.448  0.00  0.00     0.192 HD
BRANCH   8  11
ATOM     11  C   UNL d   1       6.843  12.976   2.198  0.00  0.00     0.133 C 
BRANCH  11  12
ATOM     12  C   UNL d   1       7.675  13.005   3.515  0.00  0.00    -0.028 C 
ATOM     13  C   UNL d   1       9.127  12.624   3.201  0.00  0.00     0.016 C 
ATOM     14  C   UNL d   1       7.611  14.379   4.220  0.00  0.00     0.011 C 
ATOM     15  C   UNL d   1       6.243  14.413   4.894  0.00  0.00     0.001 C 
ATOM     16  C   UNL d   1       5.879  12.951   5.154  0.00  0.00     0.001 C 
ATOM     17  C   UNL d   1       7.036  12.118   4.595  0.00  0.00     0.011 C 
ENDBRANCH  11  12
ENDBRANCH   8  11
ENDBRANCH   3   5
BRANCH   1  18
ATOM     18  C   UNL d   1       5.031   5.892   0.838  0.00  0.00     0.280 C 
BRANCH  18  19
ATOM     19  O   UNL d   1       5.462   4.717   0.130  0.00  0.00    -0.342 OA
BRANCH  19  20
ATOM     20  C   UNL d   1       4.677   3.591   0.161  0.00  0.00     0.069 A 
ATOM     21  C   UNL d   1       5.083   2.524  -0.655  0.00  0.00     0.039 A 
ATOM     22  C   UNL d   1       4.310   1.353  -0.756  0.00  0.00     0.039 A 
ATOM     23  C   UNL d   1       3.152   1.206   0.007  0.00  0.00     0.068 A 
ATOM     24  C   UNL d   1       2.773   2.242   0.857  0.00  0.00     0.039 A 
ATOM     25  C   UNL d   1       3.526   3.428   0.928  0.00  0.00     0.039 A 
BRANCH  23  26
ATOM     26  O   UNL d   1       2.528  -0.011  -0.063  0.00  0.00    -0.356 OA
ATOM     27  C   UNL d   1       1.107   0.010   0.038  0.00  0.00     0.210 C 
ENDBRANCH  23  26
ENDBRANCH  19  20
ENDBRANCH  18  19
ENDBRANCH   1  18
TORSDOF 7
