@<TRIPOS>MOLECULE
*****
 63 66 0 0 0
SMALL
GASTEIGER

@<TRIPOS>ATOM
      1 C           1.0236   -0.1374   -0.0513 C.3     1  UNL1        0.0788
      2 O           2.4431   -0.2373   -0.0352 O.3     1  UNL1       -0.4950
      3 C           3.0606   -0.1665   -1.2558 C.ar    1  UNL1        0.1243
      4 C           4.2340   -0.9175   -1.4044 C.ar    1  UNL1        0.0218
      5 C           5.0196   -0.7921   -2.5558 C.ar    1  UNL1        0.1243
      6 O           6.2204   -1.4534   -2.5554 O.3     1  UNL1       -0.4950
      7 C           7.1060   -1.1412   -3.6347 C.3     1  UNL1        0.0788
      8 C           4.5700    0.0139   -3.5978 C.ar    1  UNL1       -0.0061
      9 C           3.4081    0.7788   -3.4528 C.ar    1  UNL1        0.0630
     10 C           3.0457    1.7281   -4.5410 C.2     1  UNL1        0.3408
     11 O           3.7488    1.7592   -5.5526 O.2     1  UNL1       -0.2483
     12 N           1.9444    2.5207   -4.3147 N.am    1  UNL1        0.0006
     13 C           1.5674    3.3618   -5.2367 C.2     1  UNL1        0.3842
     14 N           0.4590    4.1356   -5.0166 N.pl3   1  UNL1       -0.2767
     15 C          -0.3607    4.0307   -3.8370 C.3     1  UNL1        0.0684
     16 C          -1.5358    4.9891   -3.9127 C.3     1  UNL1        0.0059
     17 C          -2.4676    4.9804   -2.7409 C.2     1  UNL1        0.0106
     18 C          -3.5042    5.8178   -2.6880 C.ar    1  UNL1        0.0510
     19 C          -3.9492    6.8091   -3.5984 C.ar    1  UNL1       -0.0482
     20 C          -4.9403    7.6197   -3.2117 C.ar    1  UNL1       -0.0608
     21 C          -5.6336    7.4120   -1.9493 C.ar    1  UNL1       -0.0555
     22 C          -5.3026    6.4556   -1.0571 C.ar    1  UNL1        0.0098
     23 C          -4.1575    5.5803   -1.3951 C.ar    1  UNL1        0.2086
     24 N          -3.6001    4.6328   -0.7527 N.2     1  UNL1       -0.2369
     25 C          -2.4057    4.1331   -1.5002 C.3     1  UNL1        0.1661
     26 N           2.1615    3.5176   -6.4600 N.pl3   1  UNL1       -0.2450
     27 C           1.9048    4.4054   -7.5110 C.ar    1  UNL1        0.1000
     28 C           1.8988    3.9217   -8.8245 C.ar    1  UNL1       -0.0232
     29 C           1.5778    4.7627   -9.8902 C.ar    1  UNL1       -0.0583
     30 C           1.2007    6.0820   -9.6468 C.ar    1  UNL1       -0.0586
     31 C           1.2217    6.5894   -8.3460 C.ar    1  UNL1       -0.0472
     32 C           0.8885    8.0199   -8.0598 C.3     1  UNL1       -0.0396
     33 C           1.5929    5.7494   -7.2920 C.ar    1  UNL1       -0.0203
     34 C           2.6575    0.6929   -2.2769 C.ar    1  UNL1       -0.0061
     35 H           0.6768   -0.1056    0.9865 H       1  UNL1        0.0660
     36 H           0.5923   -1.0207   -0.5309 H       1  UNL1        0.0660
     37 H           0.6566    0.7772   -0.5270 H       1  UNL1        0.0660
     38 H           4.5475   -1.5910   -0.6087 H       1  UNL1        0.0691
     39 H           8.0718   -1.6185   -3.4461 H       1  UNL1        0.0660
     40 H           7.2872   -0.0616   -3.7193 H       1  UNL1        0.0660
     41 H           6.7113   -1.5433   -4.5736 H       1  UNL1        0.0660
     42 H           5.1261    0.0877   -4.5270 H       1  UNL1        0.0662
     43 H           0.0875    4.6366   -5.8145 H       1  UNL1        0.2577
     44 H           0.2439    4.2778   -2.9591 H       1  UNL1        0.0658
     45 H          -0.7417    3.0102   -3.7337 H       1  UNL1        0.0658
     46 H          -2.1250    4.7690   -4.8149 H       1  UNL1        0.0343
     47 H          -1.1538    6.0130   -4.0445 H       1  UNL1        0.0343
     48 H          -3.4615    6.9162   -4.5611 H       1  UNL1        0.0626
     49 H          -5.2378    8.4443   -3.8537 H       1  UNL1        0.0618
     50 H          -6.4778    8.0771   -1.7738 H       1  UNL1        0.0620
     51 H          -5.8534    6.3449   -0.1305 H       1  UNL1        0.0683
     52 H          -3.9524    4.2911    0.1445 H       1  UNL1        0.4459
     53 H          -2.5305    3.0663   -1.7029 H       1  UNL1        0.1077
     54 H          -1.5140    4.3212   -0.8934 H       1  UNL1        0.1077
     55 H           2.9692    2.9112   -6.6214 H       1  UNL1        0.2646
     56 H           2.1172    2.8744   -9.0242 H       1  UNL1        0.0652
     57 H           1.6174    4.3886  -10.9101 H       1  UNL1        0.0619
     58 H           0.9045    6.7132  -10.4812 H       1  UNL1        0.0620
     59 H           0.6215    8.5582   -8.9735 H       1  UNL1        0.0278
     60 H           1.7560    8.5150   -7.6122 H       1  UNL1        0.0278
     61 H           0.0423    8.0786   -7.3674 H       1  UNL1        0.0278
     62 H           1.6577    6.1559   -6.2848 H       1  UNL1        0.0655
     63 H           1.7926    1.3329   -2.1638 H       1  UNL1        0.0662
@<TRIPOS>UNITY_ATOM_ATTR
24 1
charge 1
@<TRIPOS>BOND
     1     1     2    1
     2     2     3    1
     3     3     4   ar
     4     4     5   ar
     5     5     6    1
     6     6     7    1
     7     5     8   ar
     8     8     9   ar
     9     9    10    1
    10    10    11    2
    11    10    12    1
    12    12    13    2
    13    13    14    1
    14    14    15    1
    15    15    16    1
    16    16    17    1
    17    17    18    2
    18    18    19   ar
    19    19    20   ar
    20    20    21   ar
    21    21    22   ar
    22    22    23   ar
    23    18    23   ar
    24    23    24    2
    25    24    25    1
    26    17    25    1
    27    13    26    1
    28    26    27    1
    29    27    28   ar
    30    28    29   ar
    31    29    30   ar
    32    30    31   ar
    33    31    32    1
    34    31    33   ar
    35    27    33   ar
    36     9    34   ar
    37     3    34   ar
    38     1    35    1
    39     1    36    1
    40     1    37    1
    41     4    38    1
    42     7    39    1
    43     7    40    1
    44     7    41    1
    45     8    42    1
    46    14    43    1
    47    15    44    1
    48    15    45    1
    49    16    46    1
    50    16    47    1
    51    19    48    1
    52    20    49    1
    53    21    50    1
    54    22    51    1
    55    24    52    1
    56    25    53    1
    57    25    54    1
    58    26    55    1
    59    28    56    1
    60    29    57    1
    61    30    58    1
    62    32    59    1
    63    32    60    1
    64    32    61    1
    65    33    62    1
    66    34    63    1
