@<TRIPOS>MOLECULE
*****
 58 60 0 0 0
SMALL
GASTEIGER

@<TRIPOS>ATOM
      1 O           9.5216  -11.5866    4.1158 O.2     1  UNL1       -0.2754
      2 C           9.3296  -10.9407    3.0868 C.2     1  UNL1        0.2186
      3 C           9.0430  -11.6011    1.7534 C.3     1  UNL1        0.0274
      4 C           8.9907  -13.1155    1.7160 C.3     1  UNL1       -0.0104
      5 C           8.6966  -13.5888    0.2871 C.3     1  UNL1        0.0901
      6 O           8.6461  -15.0168    0.2971 O.3     1  UNL1       -0.4905
      7 C           8.3887  -15.5988   -0.9173 C.ar    1  UNL1        0.1388
      8 C           9.0625  -15.2197   -2.0823 C.ar    1  UNL1       -0.0171
      9 C           8.8182  -15.8857   -3.2857 C.ar    1  UNL1       -0.0398
     10 C           7.9095  -16.9406   -3.3255 C.ar    1  UNL1        0.0426
     11 CL          7.6212  -17.7535   -4.8140 Cl      1  UNL1       -0.0835
     12 C           7.2441  -17.3434   -2.1710 C.ar    1  UNL1       -0.0215
     13 C           7.4917  -16.6774   -0.9668 C.ar    1  UNL1        0.0839
     14 CL          6.6506  -17.2085    0.4465 Cl      1  UNL1       -0.0797
     15 N           9.3757   -9.5326    3.1135 N.am    1  UNL1       -0.2667
     16 C           9.2065   -8.5485    2.1197 C.2     1  UNL1        0.1530
     17 S           8.8674   -8.8165    0.4815 S.2     1  UNL1       -0.0170
     18 N           9.3475   -7.2280    2.5558 N.am    1  UNL1       -0.2455
     19 N           9.1442   -6.2023    1.5758 N.am    1  UNL1       -0.2349
     20 C           9.2502   -4.8653    1.8655 C.2     1  UNL1        0.2341
     21 O           9.5371   -4.4678    2.9922 O.2     1  UNL1       -0.2739
     22 C           8.8429   -3.9261    0.7308 C.3     1  UNL1        0.0609
     23 C           9.3432   -2.5098    0.9819 C.3     1  UNL1        0.0367
     24 C           9.2873   -1.9001   -0.3785 C.2     1  UNL1        0.2166
     25 O           9.1807   -0.6922   -0.5469 O.2     1  UNL1       -0.2756
     26 N           9.4236   -2.9216   -1.3110 N.am    1  UNL1       -0.2964
     27 C           9.6182   -2.7699   -2.7594 C.3     1  UNL1        0.0397
     28 C           9.7911   -1.3507   -3.2427 C.ar    1  UNL1       -0.0301
     29 C           8.8884   -0.7549   -4.1325 C.ar    1  UNL1       -0.0571
     30 C           9.0835    0.5662   -4.5463 C.ar    1  UNL1       -0.0615
     31 C          10.1086    1.3336   -3.9915 C.ar    1  UNL1       -0.0617
     32 C          10.9902    0.7624   -3.0811 C.ar    1  UNL1       -0.0615
     33 C          10.8604   -0.5825   -2.7498 C.ar    1  UNL1       -0.0571
     34 C           9.3940   -4.2215   -0.6650 C.3     1  UNL1        0.0266
     35 H           9.8403  -11.2951    1.0680 H       1  UNL1        0.0359
     36 H           8.0626  -11.2443    1.4226 H       1  UNL1        0.0359
     37 H           8.2224  -13.4911    2.3993 H       1  UNL1        0.0302
     38 H           9.9443  -13.5368    2.0528 H       1  UNL1        0.0302
     39 H           9.4895  -13.2204   -0.3742 H       1  UNL1        0.0696
     40 H           7.7346  -13.1871   -0.0594 H       1  UNL1        0.0696
     41 H           9.8074  -14.4310   -2.0733 H       1  UNL1        0.0655
     42 H           9.3513  -15.5837   -4.1838 H       1  UNL1        0.0633
     43 H           6.5418  -18.1718   -2.2063 H       1  UNL1        0.0648
     44 H           9.5728   -9.2182    4.0579 H       1  UNL1        0.1565
     45 H           9.5198   -6.9112    3.5112 H       1  UNL1        0.1718
     46 H           8.9116   -6.5500    0.6460 H       1  UNL1        0.1728
     47 H           7.7448   -3.9016    0.6852 H       1  UNL1        0.0415
     48 H          10.3832   -2.4785    1.3276 H       1  UNL1        0.0366
     49 H           8.7039   -1.9426    1.6612 H       1  UNL1        0.0366
     50 H           8.7818   -3.2628   -3.2698 H       1  UNL1        0.0514
     51 H          10.5250   -3.3251   -3.0363 H       1  UNL1        0.0514
     52 H           8.0156   -1.2967   -4.4889 H       1  UNL1        0.0621
     53 H           8.4232    1.0084   -5.2870 H       1  UNL1        0.0618
     54 H          10.2069    2.3837   -4.2496 H       1  UNL1        0.0618
     55 H          11.7605    1.3604   -2.6032 H       1  UNL1        0.0618
     56 H          11.5263   -1.0063   -2.0012 H       1  UNL1        0.0621
     57 H          10.4038   -4.6434   -0.6492 H       1  UNL1        0.0472
     58 H           8.7309   -4.8910   -1.2253 H       1  UNL1        0.0472
@<TRIPOS>BOND
     1     1     2    2
     2     2     3    1
     3     3     4    1
     4     4     5    1
     5     5     6    1
     6     6     7    1
     7     7     8   ar
     8     8     9   ar
     9     9    10   ar
    10    10    11    1
    11    10    12   ar
    12    12    13   ar
    13     7    13   ar
    14    13    14    1
    15     2    15   am
    16    15    16    1
    17    16    17    2
    18    16    18    1
    19    18    19    1
    20    19    20   am
    21    20    21    2
    22    22    23    1
    23    23    24    1
    24    24    25    2
    25    24    26   am
    26    26    27    1
    27    27    28    1
    28    28    29   ar
    29    29    30   ar
    30    30    31   ar
    31    31    32   ar
    32    32    33   ar
    33    28    33   ar
    34    26    34    1
    35    22    34    1
    36    22    20    1
    37     3    35    1
    38     3    36    1
    39     4    37    1
    40     4    38    1
    41     5    39    1
    42     5    40    1
    43     8    41    1
    44     9    42    1
    45    12    43    1
    46    15    44    1
    47    18    45    1
    48    19    46    1
    49    22    47    1
    50    23    48    1
    51    23    49    1
    52    27    50    1
    53    27    51    1
    54    29    52    1
    55    30    53    1
    56    31    54    1
    57    32    55    1
    58    33    56    1
    59    34    57    1
    60    34    58    1
