@<TRIPOS>MOLECULE
*****
 56 60 0 0 0
SMALL
GASTEIGER

@<TRIPOS>ATOM
      1 C           1.0617   -0.0345   -0.0501 C.3     1  UNL1       -0.0124
      2 N           2.5251   -0.0587   -0.0412 N.3     1  UNL1       -0.3006
      3 C           2.9720   -1.1361    0.8318 C.3     1  UNL1        0.0029
      4 C           4.4670   -1.2680    0.6826 C.3     1  UNL1       -0.0135
      5 C           5.2374    0.0227    0.8135 C.ar    1  UNL1       -0.0183
      6 C           4.5557    1.2557    0.6951 C.ar    1  UNL1        0.0582
      7 C           5.2468    2.4851    0.8372 C.ar    1  UNL1        0.2776
      8 N           4.5855    3.7021    0.8939 N.pl3   1  UNL1       -0.2733
      9 C           3.4337    3.9145    1.8150 C.3     1  UNL1        0.0408
     10 C           2.1756    4.3984    1.0613 C.3     1  UNL1        0.0636
     11 O           2.4691    5.5881    0.3227 O.3     1  UNL1       -0.3767
     12 C           3.4870    5.3323   -0.6576 C.3     1  UNL1        0.0636
     13 C           4.8130    4.8697    0.0075 C.3     1  UNL1        0.0408
     14 N           6.5930    2.4260    1.0262 N.ar    1  UNL1       -0.1851
     15 C           7.2744    1.2231    1.1215 C.ar    1  UNL1        0.2566
     16 S           8.9754    1.0102    1.4085 S.2     1  UNL1       -0.0133
     17 C           8.8838   -0.7170    1.3551 C.ar    1  UNL1        0.1015
     18 C           9.9870   -1.7103    1.4816 C.2     1  UNL1        0.2569
     19 O           9.7085   -2.9231    1.4226 O.2     1  UNL1       -0.2692
     20 N          11.3092   -1.3261    1.7137 N.am    1  UNL1       -0.2810
     21 C          12.3395   -2.3108    1.8927 C.ar    1  UNL1        0.0338
     22 C          13.2345   -2.2177    2.9637 C.ar    1  UNL1       -0.0391
     23 C          14.0900   -3.2949    3.2631 C.ar    1  UNL1       -0.0416
     24 C          14.2520   -4.3341    2.3507 C.ar    1  UNL1        0.0411
     25 CL         15.4501   -5.5406    2.6154 Cl      1  UNL1       -0.0835
     26 C          13.4676   -4.3710    1.2063 C.ar    1  UNL1       -0.0416
     27 C          12.4612   -3.4105    1.0262 C.ar    1  UNL1       -0.0391
     28 C           7.5620   -1.0871    1.1408 C.ar    1  UNL1        0.0581
     29 N           7.1912   -2.3853    1.0617 N.pl3   1  UNL1       -0.3563
     30 C           6.6349    0.0033    1.0149 C.ar    1  UNL1        0.0792
     31 C           3.0515    1.2168    0.4551 C.3     1  UNL1        0.0317
     32 H           0.6745   -0.9742   -0.4573 H       1  UNL1        0.0391
     33 H           0.6942    0.7744   -0.6877 H       1  UNL1        0.0391
     34 H           0.6506    0.0990    0.9580 H       1  UNL1        0.0391
     35 H           2.5206   -2.0958    0.5565 H       1  UNL1        0.0430
     36 H           2.7224   -0.9407    1.8839 H       1  UNL1        0.0430
     37 H           4.7113   -1.7004   -0.2967 H       1  UNL1        0.0326
     38 H           4.7702   -1.9452    1.4835 H       1  UNL1        0.0326
     39 H           3.7315    4.6955    2.5223 H       1  UNL1        0.0488
     40 H           3.2106    3.0336    2.4200 H       1  UNL1        0.0488
     41 H           1.3748    4.6229    1.7735 H       1  UNL1        0.0575
     42 H           1.7723    3.6559    0.3656 H       1  UNL1        0.0575
     43 H           3.6395    6.2678   -1.2073 H       1  UNL1        0.0575
     44 H           3.1138    4.5866   -1.3696 H       1  UNL1        0.0575
     45 H           5.1699    5.6920    0.6409 H       1  UNL1        0.0488
     46 H           5.5652    4.6736   -0.7611 H       1  UNL1        0.0488
     47 H           7.0952    3.2972    1.1608 H       1  UNL1        0.4554
     48 H          11.4828   -0.3947    2.0637 H       1  UNL1        0.1551
     49 H          13.2472   -1.3578    3.6252 H       1  UNL1        0.0636
     50 H          14.6269   -3.3237    4.2095 H       1  UNL1        0.0633
     51 H          13.6172   -5.1505    0.4627 H       1  UNL1        0.0633
     52 H          11.7960   -3.5238    0.1745 H       1  UNL1        0.0636
     53 H           7.8824   -3.1408    1.1523 H       1  UNL1        0.1424
     54 H           6.3060   -2.7472    0.7331 H       1  UNL1        0.1424
     55 H           2.8101    1.9767   -0.2913 H       1  UNL1        0.0478
     56 H           2.5533    1.4381    1.4041 H       1  UNL1        0.0478
@<TRIPOS>UNITY_ATOM_ATTR
14 1
charge 1
@<TRIPOS>BOND
     1     1     2    1
     2     2     3    1
     3     3     4    1
     4     4     5    1
     5     5     6   ar
     6     6     7   ar
     7     7     8    1
     8     8     9    1
     9     9    10    1
    10    10    11    1
    11    11    12    1
    12    12    13    1
    13     8    13    1
    14     7    14   ar
    15    14    15   ar
    16    15    16   ar
    17    16    17   ar
    18    17    18    1
    19    18    19    2
    20    18    20   am
    21    20    21    1
    22    21    22   ar
    23    22    23   ar
    24    23    24   ar
    25    24    25    1
    26    24    26   ar
    27    26    27   ar
    28    21    27   ar
    29    17    28   ar
    30    28    29    1
    31    28    30   ar
    32     5    30   ar
    33    15    30   ar
    34     6    31    1
    35     2    31    1
    36     1    32    1
    37     1    33    1
    38     1    34    1
    39     3    35    1
    40     3    36    1
    41     4    37    1
    42     4    38    1
    43     9    39    1
    44     9    40    1
    45    10    41    1
    46    10    42    1
    47    12    43    1
    48    12    44    1
    49    13    45    1
    50    13    46    1
    51    14    47    1
    52    20    48    1
    53    22    49    1
    54    23    50    1
    55    26    51    1
    56    27    52    1
    57    29    53    1
    58    29    54    1
    59    31    55    1
    60    31    56    1
