REMARK  3 active torsions:
REMARK  status: ('A' for Active; 'I' for Inactive)
REMARK    1  A    between atoms: C_7  and  C_8 
REMARK       I    between atoms: C_8  and  N_10 
REMARK    2  A    between atoms: N_10  and  N_11 
REMARK       I    between atoms: N_11  and  C_12 
REMARK    3  A    between atoms: C_12  and  C_14 
ROOT
ATOM      1  C   UNL d   1       1.093   2.612   0.003  0.00  0.00     0.270 C 
ATOM      2  O   UNL d   1       0.426   3.648   0.003  0.00  0.00    -0.266 OA
ATOM      3  N   UNL d   1       2.480   2.662   0.005  0.00  0.00    -0.263 N 
ATOM      4  H   UNL d   1       3.097   1.867  -0.011  0.00  0.00     0.190 HD
ENDROOT
BRANCH   3   5
ATOM      5  N   UNL d   1       3.212   3.860   0.049  0.00  0.00    -0.263 N 
ATOM      6  C   UNL d   1       4.598   3.755  -0.019  0.00  0.00     0.270 C 
ATOM      7  O   UNL d   1       5.169   2.661  -0.089  0.00  0.00    -0.266 OA
ATOM      8  H   UNL d   1       2.697   4.733  -0.017  0.00  0.00     0.190 HD
BRANCH   6   9
ATOM      9  C   UNL d   1       5.327   5.016  -0.010  0.00  0.00     0.040 A 
ATOM     10  C   UNL d   1       5.036   6.152   0.816  0.00  0.00     0.024 A 
ATOM     11  C   UNL d   1       5.909   7.198   0.615  0.00  0.00     0.050 A 
ATOM     12  S   UNL d   1       7.089   6.828  -0.564  0.00  0.00    -0.113 SA
ATOM     13  C   UNL d   1       6.453   5.252  -0.781  0.00  0.00     0.066 A 
ENDBRANCH   6   9
ENDBRANCH   3   5
BRANCH   1  14
ATOM     14  C   UNL d   1       0.393   1.248   0.000  0.00  0.00     0.039 A 
ATOM     15  C   UNL d   1      -1.024   1.247  -0.002  0.00  0.00     0.017 A 
ATOM     16  C   UNL d   1      -1.768   0.053  -0.007  0.00  0.00     0.001 A 
ATOM     17  C   UNL d   1      -1.117  -1.173  -0.000  0.00  0.00     0.001 A 
ATOM     18  C   UNL d   1       0.271  -1.203   0.004  0.00  0.00     0.007 A 
ATOM     19  C   UNL d   1       1.035  -0.014   0.001  0.00  0.00    -0.046 A 
ATOM     20  C   UNL d   1       2.519  -0.198  -0.010  0.00  0.00     0.049 C 
ENDBRANCH   1  14
TORSDOF 3
